
  EPA STORM WATER MANAGEMENT MODEL - VERSION 5.1 (Build 5.1.010)
  --------------------------------------------------------------

  
  *************
  Element Count
  *************
  Number of rain gages ...... 1
  Number of subcatchments ... 1
  Number of nodes ........... 1
  Number of links ........... 0
  Number of pollutants ...... 0
  Number of land uses ....... 0
  
  
  ****************
  Raingage Summary
  ****************
                                                      Data       Recording
  Name                 Data Source                    Type       Interval 
  ------------------------------------------------------------------------
  Jan-March_Storms     Jan-Mar2009                    INTENSITY    5 min.
  
  
  ********************
  Subcatchment Summary
  ********************
  Name                       Area     Width   %Imperv    %Slope Rain Gage            Outlet              
  -----------------------------------------------------------------------------------------------------------
  FS10                       0.15     80.00      0.00    4.1670 Jan-March_Storms     1                   


  *******************
  LID Control Summary
  *******************
                                   No. of        Unit        Unit      % Area    % Imperv
  Subcatchment     LID Control      Units        Area       Width     Covered     Treated
  ---------------------------------------------------------------------------------------
  FS10             GreenRoof            1     6400.00       18.43       99.94      100.00
  
  
  ************
  Node Summary
  ************
                                           Invert      Max.    Ponded    External
  Name                 Type                 Elev.     Depth      Area    Inflow  
  -------------------------------------------------------------------------------
  1                    OUTFALL               0.00      0.00       0.0
  
  
  
  *********************************************************
  NOTE: The summary statistics displayed in this report are
  based on results found at every computational time step,  
  not just on results from each reporting time step.
  *********************************************************
  
  ****************
  Analysis Options
  ****************
  Flow Units ............... GPM
  Process Models:
    Rainfall/Runoff ........ YES
    RDII ................... NO
    Snowmelt ............... NO
    Groundwater ............ NO
    Flow Routing ........... NO
    Water Quality .......... NO
  Infiltration Method ...... GREEN_AMPT
  Starting Date ............ JAN-06-2009 10:35:00
  Ending Date .............. MAR-31-2009 23:55:00
  Antecedent Dry Days ...... 0.0
  Report Time Step ......... 00:05:00
  Wet Time Step ............ 00:05:00
  Dry Time Step ............ 00:05:00
  
  
  *********************
  Control Actions Taken
  *********************

  
  **************************        Volume         Depth
  Runoff Quantity Continuity     acre-feet        inches
  **************************     ---------       -------
  Initial LID Storage ......         0.022         1.774
  Total Precipitation ......         0.090         7.310
  Evaporation Loss .........         0.000         0.000
  Infiltration Loss ........         0.000         0.000
  Surface Runoff ...........         0.000         0.000
  LID Drainage .............         0.090         7.366
  Final Storage ............         0.016         1.330
  Continuity Error (%) .....         4.265
  
  
  **************************        Volume        Volume
  Flow Routing Continuity        acre-feet      10^6 gal
  **************************     ---------     ---------
  Dry Weather Inflow .......         0.000         0.000
  Wet Weather Inflow .......         0.090         0.029
  Groundwater Inflow .......         0.000         0.000
  RDII Inflow ..............         0.000         0.000
  External Inflow ..........         0.000         0.000
  External Outflow .........         0.090         0.029
  Flooding Loss ............         0.000         0.000
  Evaporation Loss .........         0.000         0.000
  Exfiltration Loss ........         0.000         0.000
  Initial Stored Volume ....         0.000         0.000
  Final Stored Volume ......         0.000         0.000
  Continuity Error (%) .....         0.000
  
  
  ***************************
  Subcatchment Runoff Summary
  ***************************
  
  --------------------------------------------------------------------------------------------------------
                            Total      Total      Total      Total      Total       Total     Peak  Runoff
                           Precip      Runon       Evap      Infil     Runoff      Runoff   Runoff   Coeff
  Subcatchment                 in         in         in         in         in    10^6 gal      GPM
  --------------------------------------------------------------------------------------------------------
  FS10                       7.31       0.00       0.00       0.00       7.37        0.03     9.13   1.008
  

  ***********************
  LID Performance Summary
  ***********************

  --------------------------------------------------------------------------------------------------------------------
                                         Total      Evap     Infil   Surface    Drain    Initial     Final  Continuity
                                        Inflow      Loss      Loss   Outflow   Outflow   Storage   Storage       Error
  Subcatchment      LID Control             in        in        in        in        in        in        in           %
  --------------------------------------------------------------------------------------------------------------------
  FS10              GreenRoof             7.31      0.00      0.00      0.00      7.37      1.77      1.33        4.22
  
  ********************
  Subcatchment Results
  ********************
  
  <<< Subcatchment FS10 >>>
  ---------------------------------------------------
  Date        Time        Precip.    Losses    Runoff
                            in/hr     in/hr       GPM
  ---------------------------------------------------
  JAN-06-2009 10:40:00      0.000     0.000    4.8226
  JAN-06-2009 10:45:00      0.000     0.000    4.6966
  JAN-06-2009 10:50:00      0.000     0.000    4.5752
  JAN-06-2009 10:55:00      0.000     0.000    4.4581
  JAN-06-2009 11:00:00      0.000     0.000    4.3453
  JAN-06-2009 11:05:00      0.000     0.000    4.2364
  JAN-06-2009 11:10:00      0.000     0.000    4.1313
  JAN-06-2009 11:15:00      0.000     0.000    4.0298
  JAN-06-2009 11:20:00      0.000     0.000    3.9318
  JAN-06-2009 11:25:00      0.000     0.000    3.8371
  JAN-06-2009 11:30:00      0.000     0.000    3.7455
  JAN-06-2009 11:35:00      0.000     0.000    3.6571
  JAN-06-2009 11:40:00      0.000     0.000    3.5715
  JAN-06-2009 11:45:00      0.000     0.000    3.4887
  JAN-06-2009 11:50:00      0.000     0.000    3.4086
  JAN-06-2009 11:55:00      0.000     0.000    3.3310
  JAN-06-2009 12:00:00      0.000     0.000    3.2559
  JAN-06-2009 12:05:00      0.000     0.000    3.1832
  JAN-06-2009 12:10:00      0.000     0.000    3.1127
  JAN-06-2009 12:15:00      0.120     0.000    3.0444
  JAN-06-2009 12:20:00      0.000     0.000    2.9781
  JAN-06-2009 12:25:00      0.000     0.000    2.9139
  JAN-06-2009 12:30:00      0.000     0.000    2.8516
  JAN-06-2009 12:35:00      0.000     0.000    2.7912
  JAN-06-2009 12:40:00      0.000     0.000    2.7325
  JAN-06-2009 12:45:00      0.000     0.000    2.6756
  JAN-06-2009 12:50:00      0.000     0.000    2.6203
  JAN-06-2009 12:55:00      0.000     0.000    2.5666
  JAN-06-2009 13:00:00      0.000     0.000    2.5145
  JAN-06-2009 13:05:00      0.000     0.000    2.4638
  JAN-06-2009 13:10:00      0.000     0.000    2.4145
  JAN-06-2009 13:15:00      0.000     0.000    2.3666
  JAN-06-2009 13:20:00      0.000     0.000    2.3201
  JAN-06-2009 13:25:00      0.000     0.000    2.2748
  JAN-06-2009 13:30:00      0.000     0.000    2.2307
  JAN-06-2009 13:35:00      0.000     0.000    2.1878
  JAN-06-2009 13:40:00      0.000     0.000    2.1461
  JAN-06-2009 13:45:00      0.000     0.000    2.1055
  JAN-06-2009 13:50:00      0.000     0.000    2.0660
  JAN-06-2009 13:55:00      0.000     0.000    2.0274
  JAN-06-2009 14:00:00      0.000     0.000    1.9899
  JAN-06-2009 14:05:00      0.000     0.000    1.9534
  JAN-06-2009 14:10:00      0.000     0.000    1.9178
  JAN-06-2009 14:15:00      0.000     0.000    1.8831
  JAN-06-2009 14:20:00      0.000     0.000    1.8493
  JAN-06-2009 14:25:00      0.000     0.000    1.8163
  JAN-06-2009 14:30:00      0.000     0.000    1.7841
  JAN-06-2009 14:35:00      0.000     0.000    1.7528
  JAN-06-2009 14:40:00      0.000     0.000    1.7222
  JAN-06-2009 14:45:00      0.000     0.000    1.6923
  JAN-06-2009 14:50:00      0.000     0.000    1.6632
  JAN-06-2009 14:55:00      0.000     0.000    1.6347
  JAN-06-2009 15:00:00      0.000     0.000    1.6070
  JAN-06-2009 15:05:00      0.000     0.000    1.5799
  JAN-06-2009 15:10:00      0.000     0.000    1.5534
  JAN-06-2009 15:15:00      0.000     0.000    1.5276
  JAN-06-2009 15:20:00      0.000     0.000    1.5023
  JAN-06-2009 15:25:00      0.000     0.000    1.4777
  JAN-06-2009 15:30:00      0.000     0.000    1.4536
  JAN-06-2009 15:35:00      0.000     0.000    1.4300
  JAN-06-2009 15:40:00      0.000     0.000    1.4070
  JAN-06-2009 15:45:00      0.000     0.000    1.3845
  JAN-06-2009 15:50:00      0.000     0.000    1.3625
  JAN-06-2009 15:55:00      0.000     0.000    1.3410
  JAN-06-2009 16:00:00      0.000     0.000    1.3199
  JAN-06-2009 16:05:00      0.000     0.000    1.2994
  JAN-06-2009 16:10:00      0.000     0.000    1.2792
  JAN-06-2009 16:15:00      0.000     0.000    1.2595
  JAN-06-2009 16:20:00      0.000     0.000    1.2402
  JAN-06-2009 16:25:00      0.000     0.000    1.2214
  JAN-06-2009 16:30:00      0.000     0.000    1.2029
  JAN-06-2009 16:35:00      0.000     0.000    1.1849
  JAN-06-2009 16:40:00      0.000     0.000    1.1672
  JAN-06-2009 16:45:00      0.000     0.000    1.1498
  JAN-06-2009 16:50:00      0.000     0.000    1.1329
  JAN-06-2009 16:55:00      0.000     0.000    1.1162
  JAN-06-2009 17:00:00      0.000     0.000    1.1000
  JAN-06-2009 17:05:00      0.000     0.000    1.0840
  JAN-06-2009 17:10:00      0.000     0.000    1.0684
  JAN-06-2009 17:15:00      0.000     0.000    1.0531
  JAN-06-2009 17:20:00      0.000     0.000    1.0381
  JAN-06-2009 17:25:00      0.000     0.000    1.0234
  JAN-06-2009 17:30:00      0.000     0.000    1.0090
  JAN-06-2009 17:35:00      0.000     0.000    0.9948
  JAN-06-2009 17:40:00      0.000     0.000    0.9810
  JAN-06-2009 17:45:00      0.000     0.000    0.9674
  JAN-06-2009 17:50:00      0.000     0.000    0.9541
  JAN-06-2009 17:55:00      0.000     0.000    0.9410
  JAN-06-2009 18:00:00      0.000     0.000    0.9282
  JAN-06-2009 18:05:00      0.000     0.000    0.9156
  JAN-06-2009 18:10:00      0.000     0.000    0.9033
  JAN-06-2009 18:15:00      0.000     0.000    0.8911
  JAN-06-2009 18:20:00      0.000     0.000    0.8793
  JAN-06-2009 18:25:00      0.000     0.000    0.8676
  JAN-06-2009 18:30:00      0.000     0.000    0.8562
  JAN-06-2009 18:35:00      0.000     0.000    0.8449
  JAN-06-2009 18:40:00      0.120     0.000    0.8339
  JAN-06-2009 18:45:00      0.000     0.000    0.8231
  JAN-06-2009 18:50:00      0.000     0.000    0.8125
  JAN-06-2009 18:55:00      0.000     0.000    0.8020
  JAN-06-2009 19:00:00      0.000     0.000    0.7918
  JAN-06-2009 19:05:00      0.000     0.000    0.7817
  JAN-06-2009 19:10:00      0.120     0.000    0.7718
  JAN-06-2009 19:15:00      0.000     0.000    0.7621
  JAN-06-2009 19:20:00      0.000     0.000    0.7525
  JAN-06-2009 19:25:00      0.000     0.000    0.7432
  JAN-06-2009 19:30:00      0.000     0.000    0.7340
  JAN-06-2009 19:35:00      0.000     0.000    0.7249
  JAN-06-2009 19:40:00      0.000     0.000    0.7160
  JAN-06-2009 19:45:00      0.000     0.000    0.7073
  JAN-06-2009 19:50:00      0.000     0.000    0.6987
  JAN-06-2009 19:55:00      0.000     0.000    0.6902
  JAN-06-2009 20:00:00      0.000     0.000    0.6819
  JAN-06-2009 20:05:00      0.000     0.000    0.6737
  JAN-06-2009 20:10:00      0.000     0.000    0.6657
  JAN-06-2009 20:15:00      0.000     0.000    0.6578
  JAN-06-2009 20:20:00      0.000     0.000    0.6500
  JAN-06-2009 20:25:00      0.000     0.000    0.6424
  JAN-06-2009 20:30:00      0.000     0.000    0.6349
  JAN-06-2009 20:35:00      0.000     0.000    0.6275
  JAN-06-2009 20:40:00      0.000     0.000    0.6202
  JAN-06-2009 20:45:00      0.120     0.000    0.6131
  JAN-06-2009 20:50:00      0.120     0.000    0.6060
  JAN-06-2009 20:55:00      0.000     0.000    0.5991
  JAN-06-2009 21:00:00      0.120     0.000    0.5923
  JAN-06-2009 21:05:00      0.000     0.000    0.5856
  JAN-06-2009 21:10:00      0.000     0.000    0.5790
  JAN-06-2009 21:15:00      0.000     0.000    0.5725
  JAN-06-2009 21:20:00      0.000     0.000    0.5661
  JAN-06-2009 21:25:00      0.120     0.000    0.5598
  JAN-06-2009 21:30:00      0.000     0.000    0.5536
  JAN-06-2009 21:35:00      0.000     0.000    0.5475
  JAN-06-2009 21:40:00      0.000     0.000    0.5415
  JAN-06-2009 21:45:00      0.000     0.000    0.5355
  JAN-06-2009 21:50:00      0.000     0.000    0.5297
  JAN-06-2009 21:55:00      0.120     0.000    0.5240
  JAN-06-2009 22:00:00      0.000     0.000    0.5183
  JAN-06-2009 22:05:00      0.000     0.000    0.5128
  JAN-06-2009 22:10:00      0.120     0.000    0.5073
  JAN-06-2009 22:15:00      0.000     0.000    0.5019
  JAN-06-2009 22:20:00      0.120     0.000    0.4966
  JAN-06-2009 22:25:00      0.000     0.000    0.4913
  JAN-06-2009 22:30:00      0.000     0.000    0.4862
  JAN-06-2009 22:35:00      0.000     0.000    0.4811
  JAN-06-2009 22:40:00      0.120     0.000    0.4761
  JAN-06-2009 22:45:00      0.000     0.000    0.4711
  JAN-06-2009 22:50:00      0.000     0.000    0.4662
  JAN-06-2009 22:55:00      0.120     0.000    0.4614
  JAN-06-2009 23:00:00      0.000     0.000    0.4567
  JAN-06-2009 23:05:00      0.120     0.000    0.4521
  JAN-06-2009 23:10:00      0.120     0.000    0.4475
  JAN-06-2009 23:15:00      0.120     0.000    0.4429
  JAN-06-2009 23:20:00      0.120     0.000    0.4385
  JAN-06-2009 23:25:00      0.000     0.000    0.4341
  JAN-06-2009 23:30:00      0.120     0.000    0.4297
  JAN-06-2009 23:35:00      0.120     0.000    0.4254
  JAN-06-2009 23:40:00      0.120     0.000    0.4212
  JAN-06-2009 23:45:00      0.120     0.000    0.4170
  JAN-06-2009 23:50:00      0.120     0.000    0.4129
  JAN-06-2009 23:55:00      0.120     0.000    0.4089
  JAN-07-2009 00:00:00      0.000     0.000    0.4049
  JAN-07-2009 00:05:00      0.120     0.000    0.4010
  JAN-07-2009 00:10:00      0.120     0.000    0.3971
  JAN-07-2009 00:15:00      0.120     0.000    0.3932
  JAN-07-2009 00:20:00      0.000     0.000    0.3895
  JAN-07-2009 00:25:00      0.120     0.000    0.3857
  JAN-07-2009 00:30:00      0.000     0.000    0.3820
  JAN-07-2009 00:35:00      0.120     0.000    0.3784
  JAN-07-2009 00:40:00      0.000     0.000    0.3748
  JAN-07-2009 00:45:00      0.000     0.000    0.3713
  JAN-07-2009 00:50:00      0.000     0.000    0.3678
  JAN-07-2009 00:55:00      0.000     0.000    0.3644
  JAN-07-2009 01:00:00      0.000     0.000    0.3610
  JAN-07-2009 01:05:00      0.000     0.000    0.3576
  JAN-07-2009 01:10:00      0.000     0.000    0.3543
  JAN-07-2009 01:15:00      0.000     0.000    0.3510
  JAN-07-2009 01:20:00      0.000     0.000    0.3478
  JAN-07-2009 01:25:00      0.000     0.000    0.3446
  JAN-07-2009 01:30:00      0.000     0.000    0.3415
  JAN-07-2009 01:35:00      0.000     0.000    0.3384
  JAN-07-2009 01:40:00      0.000     0.000    0.3353
  JAN-07-2009 01:45:00      0.000     0.000    0.3323
  JAN-07-2009 01:50:00      0.000     0.000    0.3293
  JAN-07-2009 01:55:00      0.000     0.000    0.3263
  JAN-07-2009 02:00:00      0.000     0.000    0.3234
  JAN-07-2009 02:05:00      0.000     0.000    0.3205
  JAN-07-2009 02:10:00      0.000     0.000    0.3177
  JAN-07-2009 02:15:00      0.000     0.000    0.3149
  JAN-07-2009 02:20:00      0.000     0.000    0.3121
  JAN-07-2009 02:25:00      0.000     0.000    0.3094
  JAN-07-2009 02:30:00      0.000     0.000    0.3067
  JAN-07-2009 02:35:00      0.000     0.000    0.3040
  JAN-07-2009 02:40:00      0.000     0.000    0.3014
  JAN-07-2009 02:45:00      0.000     0.000    0.2988
  JAN-07-2009 02:50:00      0.120     0.000    0.2962
  JAN-07-2009 02:55:00      0.000     0.000    0.2937
  JAN-07-2009 03:00:00      0.000     0.000    0.2911
  JAN-07-2009 03:05:00      0.120     0.000    0.2887
  JAN-07-2009 03:10:00      0.000     0.000    0.2862
  JAN-07-2009 03:15:00      0.000     0.000    0.2838
  JAN-07-2009 03:20:00      0.120     0.000    0.2814
  JAN-07-2009 03:25:00      0.000     0.000    0.2790
  JAN-07-2009 03:30:00      0.000     0.000    0.2767
  JAN-07-2009 03:35:00      0.000     0.000    0.2744
  JAN-07-2009 03:40:00      0.000     0.000    0.2721
  JAN-07-2009 03:45:00      0.120     0.000    0.2698
  JAN-07-2009 03:50:00      0.000     0.000    0.2676
  JAN-07-2009 03:55:00      0.000     0.000    0.2654
  JAN-07-2009 04:00:00      0.000     0.000    0.2632
  JAN-07-2009 04:05:00      0.000     0.000    0.2610
  JAN-07-2009 04:10:00      0.120     0.000    0.2589
  JAN-07-2009 04:15:00      0.000     0.000    0.2568
  JAN-07-2009 04:20:00      0.000     0.000    0.2547
  JAN-07-2009 04:25:00      0.000     0.000    0.3048
  JAN-07-2009 04:30:00      0.000     0.000    0.3022
  JAN-07-2009 04:35:00      0.000     0.000    0.2995
  JAN-07-2009 04:40:00      0.000     0.000    0.2970
  JAN-07-2009 04:45:00      0.000     0.000    0.2944
  JAN-07-2009 04:50:00      0.000     0.000    0.2919
  JAN-07-2009 04:55:00      0.000     0.000    0.2894
  JAN-07-2009 05:00:00      0.000     0.000    0.2869
  JAN-07-2009 05:05:00      0.000     0.000    0.2845
  JAN-07-2009 05:10:00      0.000     0.000    0.2821
  JAN-07-2009 05:15:00      0.000     0.000    0.2797
  JAN-07-2009 05:20:00      0.000     0.000    0.2774
  JAN-07-2009 05:25:00      0.000     0.000    0.2751
  JAN-07-2009 05:30:00      0.000     0.000    0.2728
  JAN-07-2009 05:35:00      0.000     0.000    0.2705
  JAN-07-2009 05:40:00      0.000     0.000    0.2683
  JAN-07-2009 05:45:00      0.120     0.000    0.2660
  JAN-07-2009 05:50:00      0.000     0.000    0.2638
  JAN-07-2009 05:55:00      0.000     0.000    0.2617
  JAN-07-2009 06:00:00      0.000     0.000    0.3279
  JAN-07-2009 06:05:00      0.000     0.000    0.3249
  JAN-07-2009 06:10:00      0.000     0.000    0.3220
  JAN-07-2009 06:15:00      0.000     0.000    0.3192
  JAN-07-2009 06:20:00      0.000     0.000    0.3164
  JAN-07-2009 06:25:00      0.000     0.000    0.3136
  JAN-07-2009 06:30:00      0.000     0.000    0.3108
  JAN-07-2009 06:35:00      0.000     0.000    0.3081
  JAN-07-2009 06:40:00      0.000     0.000    0.3054
  JAN-07-2009 06:45:00      0.000     0.000    0.3028
  JAN-07-2009 06:50:00      0.000     0.000    0.3001
  JAN-07-2009 06:55:00      0.000     0.000    0.2975
  JAN-07-2009 07:00:00      0.000     0.000    0.2950
  JAN-07-2009 07:05:00      0.000     0.000    0.2924
  JAN-07-2009 07:10:00      0.000     0.000    0.2899
  JAN-07-2009 07:15:00      0.000     0.000    0.2875
  JAN-07-2009 07:20:00      0.000     0.000    0.2850
  JAN-07-2009 07:25:00      0.000     0.000    0.2826
  JAN-07-2009 07:30:00      0.000     0.000    0.2802
  JAN-07-2009 07:35:00      0.000     0.000    0.2779
  JAN-07-2009 07:40:00      0.000     0.000    0.2756
  JAN-07-2009 07:45:00      0.000     0.000    0.2733
  JAN-07-2009 07:50:00      0.000     0.000    0.2710
  JAN-07-2009 07:55:00      0.000     0.000    0.2687
  JAN-07-2009 08:00:00      0.000     0.000    0.2665
  JAN-07-2009 08:05:00      0.120     0.000    0.2643
  JAN-07-2009 08:10:00      0.000     0.000    0.2622
  JAN-07-2009 08:15:00      0.000     0.000    0.2600
  JAN-07-2009 08:20:00      0.000     0.000    0.3261
  JAN-07-2009 08:25:00      0.000     0.000    0.3232
  JAN-07-2009 08:30:00      0.000     0.000    0.3203
  JAN-07-2009 08:35:00      0.000     0.000    0.3174
  JAN-07-2009 08:40:00      0.000     0.000    0.3146
  JAN-07-2009 08:45:00      0.000     0.000    0.3119
  JAN-07-2009 08:50:00      0.000     0.000    0.3091
  JAN-07-2009 08:55:00      0.000     0.000    0.3064
  JAN-07-2009 09:00:00      0.000     0.000    0.3038
  JAN-07-2009 09:05:00      0.000     0.000    0.3011
  JAN-07-2009 09:10:00      0.000     0.000    0.2985
  JAN-07-2009 09:15:00      0.000     0.000    0.2960
  JAN-07-2009 09:20:00      0.000     0.000    0.2934
  JAN-07-2009 09:25:00      0.000     0.000    0.2909
  JAN-07-2009 09:30:00      0.000     0.000    0.2884
  JAN-07-2009 09:35:00      0.000     0.000    0.2860
  JAN-07-2009 09:40:00      0.000     0.000    0.2836
  JAN-07-2009 09:45:00      0.000     0.000    0.2812
  JAN-07-2009 09:50:00      0.000     0.000    0.2788
  JAN-07-2009 09:55:00      0.000     0.000    0.2765
  JAN-07-2009 10:00:00      0.000     0.000    0.2742
  JAN-07-2009 10:05:00      0.000     0.000    0.2719
  JAN-07-2009 10:10:00      0.000     0.000    0.2696
  JAN-07-2009 10:15:00      0.000     0.000    0.2674
  JAN-07-2009 10:20:00      0.000     0.000    0.2652
  JAN-07-2009 10:25:00      0.000     0.000    0.2630
  JAN-07-2009 10:30:00      0.000     0.000    0.2608
  JAN-07-2009 10:35:00      0.000     0.000    0.2587
  JAN-07-2009 10:40:00      0.000     0.000    0.2566
  JAN-07-2009 10:45:00      0.000     0.000    0.2545
  JAN-07-2009 10:50:00      0.000     0.000    0.2525
  JAN-07-2009 10:55:00      0.000     0.000    0.2504
  JAN-07-2009 11:00:00      0.000     0.000    0.2484
  JAN-07-2009 11:05:00      0.000     0.000    0.2464
  JAN-07-2009 11:10:00      0.000     0.000    0.2445
  JAN-07-2009 11:15:00      0.000     0.000    0.2425
  JAN-07-2009 11:20:00      0.000     0.000    0.2406
  JAN-07-2009 11:25:00      0.000     0.000    0.2387
  JAN-07-2009 11:30:00      0.000     0.000    0.2368
  JAN-07-2009 11:35:00      0.000     0.000    0.2350
  JAN-07-2009 11:40:00      0.000     0.000    0.2331
  JAN-07-2009 11:45:00      0.000     0.000    0.2313
  JAN-07-2009 11:50:00      0.000     0.000    0.2295
  JAN-07-2009 11:55:00      0.120     0.000    0.2277
  JAN-07-2009 12:00:00      0.000     0.000    0.2260
  JAN-07-2009 12:05:00      0.000     0.000    0.2242
  JAN-07-2009 12:10:00      0.000     0.000    0.2870
  JAN-07-2009 12:15:00      0.000     0.000    0.2846
  JAN-07-2009 12:20:00      0.000     0.000    0.2822
  JAN-07-2009 12:25:00      0.000     0.000    0.2798
  JAN-07-2009 12:30:00      0.000     0.000    0.2775
  JAN-07-2009 12:35:00      0.000     0.000    0.2751
  JAN-07-2009 12:40:00      0.000     0.000    0.2728
  JAN-07-2009 12:45:00      0.000     0.000    0.2706
  JAN-07-2009 12:50:00      0.000     0.000    0.2683
  JAN-07-2009 12:55:00      0.000     0.000    0.2661
  JAN-07-2009 13:00:00      0.000     0.000    0.2639
  JAN-07-2009 13:05:00      0.000     0.000    0.2618
  JAN-07-2009 13:10:00      0.000     0.000    0.2596
  JAN-07-2009 13:15:00      0.000     0.000    0.2575
  JAN-07-2009 13:20:00      0.000     0.000    0.2554
  JAN-07-2009 13:25:00      0.000     0.000    0.2534
  JAN-07-2009 13:30:00      0.000     0.000    0.2513
  JAN-07-2009 13:35:00      0.000     0.000    0.2493
  JAN-07-2009 13:40:00      0.000     0.000    0.2473
  JAN-07-2009 13:45:00      0.000     0.000    0.2453
  JAN-07-2009 13:50:00      0.000     0.000    0.2434
  JAN-07-2009 13:55:00      0.000     0.000    0.2414
  JAN-07-2009 14:00:00      0.000     0.000    0.2395
  JAN-07-2009 14:05:00      0.000     0.000    0.2376
  JAN-07-2009 14:10:00      0.000     0.000    0.2358
  JAN-07-2009 14:15:00      0.000     0.000    0.2339
  JAN-07-2009 14:20:00      0.000     0.000    0.2321
  JAN-07-2009 14:25:00      0.000     0.000    0.2303
  JAN-07-2009 14:30:00      0.000     0.000    0.2285
  JAN-07-2009 14:35:00      0.000     0.000    0.2267
  JAN-07-2009 14:40:00      0.000     0.000    0.2250
  JAN-07-2009 14:45:00      0.000     0.000    0.2232
  JAN-07-2009 14:50:00      0.000     0.000    0.2215
  JAN-07-2009 14:55:00      0.000     0.000    0.2198
  JAN-07-2009 15:00:00      0.000     0.000    0.2182
  JAN-07-2009 15:05:00      0.000     0.000    0.2165
  JAN-07-2009 15:10:00      0.000     0.000    0.2149
  JAN-07-2009 15:15:00      0.000     0.000    0.2132
  JAN-07-2009 15:20:00      0.120     0.000    0.2116
  JAN-07-2009 15:25:00      0.000     0.000    0.2100
  JAN-07-2009 15:30:00      0.000     0.000    0.2085
  JAN-07-2009 15:35:00      0.000     0.000    0.2697
  JAN-07-2009 15:40:00      0.000     0.000    0.2675
  JAN-07-2009 15:45:00      0.000     0.000    0.2653
  JAN-07-2009 15:50:00      0.120     0.000    0.2631
  JAN-07-2009 15:55:00      0.000     0.000    0.2610
  JAN-07-2009 16:00:00      0.000     0.000    0.2588
  JAN-07-2009 16:05:00      0.000     0.000    0.3248
  JAN-07-2009 16:10:00      0.120     0.000    0.3219
  JAN-07-2009 16:15:00      0.000     0.000    0.3190
  JAN-07-2009 16:20:00      0.120     0.000    0.3162
  JAN-07-2009 16:25:00      0.000     0.000    0.3867
  JAN-07-2009 16:30:00      0.120     0.000    0.3830
  JAN-07-2009 16:35:00      0.120     0.000    0.4582
  JAN-07-2009 16:40:00      0.000     0.000    0.4535
  JAN-07-2009 16:45:00      0.120     0.000    0.5328
  JAN-07-2009 16:50:00      0.120     0.000    0.6163
  JAN-07-2009 16:55:00      0.120     0.000    0.6092
  JAN-07-2009 17:00:00      0.120     0.000    0.6961
  JAN-07-2009 17:05:00      0.120     0.000    0.7865
  JAN-07-2009 17:10:00      0.120     0.000    0.8801
  JAN-07-2009 17:15:00      0.120     0.000    0.9765
  JAN-07-2009 17:20:00      0.240     0.000    1.0755
  JAN-07-2009 17:25:00      0.120     0.000    1.1768
  JAN-07-2009 17:30:00      0.120     0.000    1.2802
  JAN-07-2009 17:35:00      0.240     0.000    1.5149
  JAN-07-2009 17:40:00      0.120     0.000    1.6233
  JAN-07-2009 17:45:00      0.120     0.000    1.7327
  JAN-07-2009 17:50:00      0.120     0.000    1.9878
  JAN-07-2009 17:55:00      0.120     0.000    2.0994
  JAN-07-2009 18:00:00      0.120     0.000    2.2113
  JAN-07-2009 18:05:00      0.120     0.000    2.3233
  JAN-07-2009 18:10:00      0.120     0.000    2.4352
  JAN-07-2009 18:15:00      0.120     0.000    2.5470
  JAN-07-2009 18:20:00      0.000     0.000    2.6585
  JAN-07-2009 18:25:00      0.240     0.000    2.7695
  JAN-07-2009 18:30:00      0.120     0.000    2.8800
  JAN-07-2009 18:35:00      0.000     0.000    2.8187
  JAN-07-2009 18:40:00      0.240     0.000    3.1025
  JAN-07-2009 18:45:00      0.240     0.000    3.2106
  JAN-07-2009 18:50:00      0.120     0.000    3.1393
  JAN-07-2009 18:55:00      0.120     0.000    3.4279
  JAN-07-2009 19:00:00      0.120     0.000    3.7198
  JAN-07-2009 19:05:00      0.000     0.000    3.8212
  JAN-07-2009 19:10:00      0.120     0.000    3.9212
  JAN-07-2009 19:15:00      0.120     0.000    4.0198
  JAN-07-2009 19:20:00      0.120     0.000    3.9221
  JAN-07-2009 19:25:00      0.120     0.000    4.0207
  JAN-07-2009 19:30:00      0.120     0.000    4.1178
  JAN-07-2009 19:35:00      0.120     0.000    4.2135
  JAN-07-2009 19:40:00      0.120     0.000    4.3076
  JAN-07-2009 19:45:00      0.120     0.000    4.4001
  JAN-07-2009 19:50:00      0.120     0.000    4.4911
  JAN-07-2009 19:55:00      0.120     0.000    4.5805
  JAN-07-2009 20:00:00      0.120     0.000    4.6683
  JAN-07-2009 20:05:00      0.120     0.000    4.7544
  JAN-07-2009 20:10:00      0.120     0.000    4.8389
  JAN-07-2009 20:15:00      0.120     0.000    4.9218
  JAN-07-2009 20:20:00      0.120     0.000    5.0030
  JAN-07-2009 20:25:00      0.120     0.000    5.0826
  JAN-07-2009 20:30:00      0.120     0.000    5.1605
  JAN-07-2009 20:35:00      0.120     0.000    5.2368
  JAN-07-2009 20:40:00      0.120     0.000    5.3114
  JAN-07-2009 20:45:00      0.120     0.000    5.3845
  JAN-07-2009 20:50:00      0.120     0.000    5.4559
  JAN-07-2009 20:55:00      0.000     0.000    5.5257
  JAN-07-2009 21:00:00      0.240     0.000    5.5939
  JAN-07-2009 21:05:00      0.120     0.000    5.6605
  JAN-07-2009 21:10:00      0.120     0.000    5.5029
  JAN-07-2009 21:15:00      0.120     0.000    5.7954
  JAN-07-2009 21:20:00      0.120     0.000    5.8573
  JAN-07-2009 21:25:00      0.120     0.000    5.9176
  JAN-07-2009 21:30:00      0.120     0.000    5.9765
  JAN-07-2009 21:35:00      0.120     0.000    6.0339
  JAN-07-2009 21:40:00      0.240     0.000    6.0899
  JAN-07-2009 21:45:00      0.240     0.000    6.1445
  JAN-07-2009 21:50:00      0.120     0.000    6.1976
  JAN-07-2009 21:55:00      0.120     0.000    6.4836
  JAN-07-2009 22:00:00      0.120     0.000    6.7661
  JAN-07-2009 22:05:00      0.240     0.000    6.8027
  JAN-07-2009 22:10:00      0.120     0.000    6.8382
  JAN-07-2009 22:15:00      0.120     0.000    6.8727
  JAN-07-2009 22:20:00      0.240     0.000    7.1498
  JAN-07-2009 22:25:00      0.120     0.000    7.1753
  JAN-07-2009 22:30:00      0.240     0.000    7.2001
  JAN-07-2009 22:35:00      0.120     0.000    7.4721
  JAN-07-2009 22:40:00      0.120     0.000    7.4880
  JAN-07-2009 22:45:00      0.120     0.000    7.7551
  JAN-07-2009 22:50:00      0.120     0.000    7.7622
  JAN-07-2009 22:55:00      0.240     0.000    7.7691
  JAN-07-2009 23:00:00      0.120     0.000    7.7758
  JAN-07-2009 23:05:00      0.000     0.000    7.7823
  JAN-07-2009 23:10:00      0.240     0.000    8.0440
  JAN-07-2009 23:15:00      0.120     0.000    8.0419
  JAN-07-2009 23:20:00      0.240     0.000    7.7845
  JAN-07-2009 23:25:00      0.240     0.000    8.0462
  JAN-07-2009 23:30:00      0.120     0.000    8.0440
  JAN-07-2009 23:35:00      0.240     0.000    8.3007
  JAN-07-2009 23:40:00      0.120     0.000    8.5521
  JAN-07-2009 23:45:00      0.120     0.000    8.5332
  JAN-07-2009 23:50:00      0.120     0.000    8.7796
  JAN-07-2009 23:55:00      0.120     0.000    8.7529
  JAN-08-2009 00:00:00      0.240     0.000    8.7271
  JAN-08-2009 00:05:00      0.120     0.000    8.7022
  JAN-08-2009 00:10:00      0.240     0.000    8.6782
  JAN-08-2009 00:15:00      0.120     0.000    8.9214
  JAN-08-2009 00:20:00      0.120     0.000    8.8898
  JAN-08-2009 00:25:00      0.120     0.000    9.1281
  JAN-08-2009 00:30:00      0.120     0.000    9.0892
  JAN-08-2009 00:35:00      0.120     0.000    9.0517
  JAN-08-2009 00:40:00      0.120     0.000    9.0155
  JAN-08-2009 00:45:00      0.120     0.000    8.9806
  JAN-08-2009 00:50:00      0.000     0.000    8.9469
  JAN-08-2009 00:55:00      0.120     0.000    8.9143
  JAN-08-2009 01:00:00      0.000     0.000    8.8830
  JAN-08-2009 01:05:00      0.120     0.000    8.5871
  JAN-08-2009 01:10:00      0.000     0.000    8.5670
  JAN-08-2009 01:15:00      0.000     0.000    8.2858
  JAN-08-2009 01:20:00      0.000     0.000    8.2758
  JAN-08-2009 01:25:00      0.000     0.000    8.0078
  JAN-08-2009 01:30:00      0.000     0.000    7.7519
  JAN-08-2009 01:35:00      0.000     0.000    7.5073
  JAN-08-2009 01:40:00      0.000     0.000    7.2734
  JAN-08-2009 01:45:00      0.000     0.000    7.0497
  JAN-08-2009 01:50:00      0.000     0.000    6.8355
  JAN-08-2009 01:55:00      0.000     0.000    6.6303
  JAN-08-2009 02:00:00      0.000     0.000    6.4337
  JAN-08-2009 02:05:00      0.000     0.000    6.2452
  JAN-08-2009 02:10:00      0.000     0.000    6.0644
  JAN-08-2009 02:15:00      0.000     0.000    5.8909
  JAN-08-2009 02:20:00      0.000     0.000    5.7242
  JAN-08-2009 02:25:00      0.120     0.000    5.5641
  JAN-08-2009 02:30:00      0.000     0.000    5.4103
  JAN-08-2009 02:35:00      0.000     0.000    5.2623
  JAN-08-2009 02:40:00      0.000     0.000    5.3364
  JAN-08-2009 02:45:00      0.000     0.000    5.1913
  JAN-08-2009 02:50:00      0.000     0.000    5.0516
  JAN-08-2009 02:55:00      0.000     0.000    4.9172
  JAN-08-2009 03:00:00      0.000     0.000    4.7877
  JAN-08-2009 03:05:00      0.000     0.000    4.6630
  JAN-08-2009 03:10:00      0.000     0.000    4.5428
  JAN-08-2009 03:15:00      0.000     0.000    4.4269
  JAN-08-2009 03:20:00      0.000     0.000    4.3152
  JAN-08-2009 03:25:00      0.000     0.000    4.2073
  JAN-08-2009 03:30:00      0.000     0.000    4.1032
  JAN-08-2009 03:35:00      0.120     0.000    4.0027
  JAN-08-2009 03:40:00      0.120     0.000    3.9056
  JAN-08-2009 03:45:00      0.120     0.000    3.8118
  JAN-08-2009 03:50:00      0.000     0.000    3.9119
  JAN-08-2009 03:55:00      0.120     0.000    4.0106
  JAN-08-2009 04:00:00      0.000     0.000    4.1079
  JAN-08-2009 04:05:00      0.000     0.000    4.0072
  JAN-08-2009 04:10:00      0.000     0.000    4.1046
  JAN-08-2009 04:15:00      0.000     0.000    4.0040
  JAN-08-2009 04:20:00      0.000     0.000    3.9069
  JAN-08-2009 04:25:00      0.000     0.000    3.8130
  JAN-08-2009 04:30:00      0.000     0.000    3.7223
  JAN-08-2009 04:35:00      0.000     0.000    3.6346
  JAN-08-2009 04:40:00      0.000     0.000    3.5497
  JAN-08-2009 04:45:00      0.000     0.000    3.4676
  JAN-08-2009 04:50:00      0.000     0.000    3.3882
  JAN-08-2009 04:55:00      0.000     0.000    3.3113
  JAN-08-2009 05:00:00      0.000     0.000    3.2368
  JAN-08-2009 05:05:00      0.000     0.000    3.1647
  JAN-08-2009 05:10:00      0.000     0.000    3.0947
  JAN-08-2009 05:15:00      0.000     0.000    3.0270
  JAN-08-2009 05:20:00      0.000     0.000    2.9613
  JAN-08-2009 05:25:00      0.000     0.000    2.8976
  JAN-08-2009 05:30:00      0.000     0.000    2.8358
  JAN-08-2009 05:35:00      0.000     0.000    2.7758
  JAN-08-2009 05:40:00      0.120     0.000    2.7176
  JAN-08-2009 05:45:00      0.000     0.000    2.6611
  JAN-08-2009 05:50:00      0.000     0.000    2.6062
  JAN-08-2009 05:55:00      0.000     0.000    2.7175
  JAN-08-2009 06:00:00      0.000     0.000    2.6610
  JAN-08-2009 06:05:00      0.000     0.000    2.6061
  JAN-08-2009 06:10:00      0.000     0.000    2.5528
  JAN-08-2009 06:15:00      0.000     0.000    2.5011
  JAN-08-2009 06:20:00      0.000     0.000    2.4508
  JAN-08-2009 06:25:00      0.000     0.000    2.4019
  JAN-08-2009 06:30:00      0.000     0.000    2.3543
  JAN-08-2009 06:35:00      0.000     0.000    2.3081
  JAN-08-2009 06:40:00      0.000     0.000    2.2631
  JAN-08-2009 06:45:00      0.000     0.000    2.2194
  JAN-08-2009 06:50:00      0.000     0.000    2.1768
  JAN-08-2009 06:55:00      0.000     0.000    2.1354
  JAN-08-2009 07:00:00      0.000     0.000    2.0951
  JAN-08-2009 07:05:00      0.000     0.000    2.0558
  JAN-08-2009 07:10:00      0.000     0.000    2.0175
  JAN-08-2009 07:15:00      0.000     0.000    1.9803
  JAN-08-2009 07:20:00      0.000     0.000    1.9440
  JAN-08-2009 07:25:00      0.000     0.000    1.9086
  JAN-08-2009 07:30:00      0.000     0.000    1.8742
  JAN-08-2009 07:35:00      0.000     0.000    1.8406
  JAN-08-2009 07:40:00      0.000     0.000    1.8078
  JAN-08-2009 07:45:00      0.000     0.000    1.7758
  JAN-08-2009 07:50:00      0.000     0.000    1.7447
  JAN-08-2009 07:55:00      0.000     0.000    1.7143
  JAN-08-2009 08:00:00      0.000     0.000    1.6846
  JAN-08-2009 08:05:00      0.000     0.000    1.6557
  JAN-08-2009 08:10:00      0.000     0.000    1.6274
  JAN-08-2009 08:15:00      0.000     0.000    1.5998
  JAN-08-2009 08:20:00      0.000     0.000    1.5729
  JAN-08-2009 08:25:00      0.000     0.000    1.5466
  JAN-08-2009 08:30:00      0.000     0.000    1.5209
  JAN-08-2009 08:35:00      0.000     0.000    1.4958
  JAN-08-2009 08:40:00      0.000     0.000    1.4713
  JAN-08-2009 08:45:00      0.000     0.000    1.4473
  JAN-08-2009 08:50:00      0.000     0.000    1.4239
  JAN-08-2009 08:55:00      0.000     0.000    1.4011
  JAN-08-2009 09:00:00      0.000     0.000    1.3787
  JAN-08-2009 09:05:00      0.000     0.000    1.3568
  JAN-08-2009 09:10:00      0.000     0.000    1.3354
  JAN-08-2009 09:15:00      0.000     0.000    1.3145
  JAN-08-2009 09:20:00      0.000     0.000    1.2940
  JAN-08-2009 09:25:00      0.000     0.000    1.2740
  JAN-08-2009 09:30:00      0.000     0.000    1.2544
  JAN-08-2009 09:35:00      0.000     0.000    1.2353
  JAN-08-2009 09:40:00      0.000     0.000    1.2165
  JAN-08-2009 09:45:00      0.000     0.000    1.1982
  JAN-08-2009 09:50:00      0.000     0.000    1.1802
  JAN-08-2009 09:55:00      0.000     0.000    1.1626
  JAN-08-2009 10:00:00      0.000     0.000    1.1454
  JAN-08-2009 10:05:00      0.000     0.000    1.1285
  JAN-08-2009 10:10:00      0.000     0.000    1.1120
  JAN-08-2009 10:15:00      0.000     0.000    1.0958
  JAN-08-2009 10:20:00      0.000     0.000    1.0799
  JAN-08-2009 10:25:00      0.000     0.000    1.0644
  JAN-08-2009 10:30:00      0.000     0.000    1.0491
  JAN-08-2009 10:35:00      0.000     0.000    1.0342
  JAN-08-2009 10:40:00      0.000     0.000    1.0196
  JAN-08-2009 10:45:00      0.000     0.000    1.0052
  JAN-08-2009 10:50:00      0.000     0.000    0.9912
  JAN-08-2009 10:55:00      0.000     0.000    0.9774
  JAN-08-2009 11:00:00      0.000     0.000    0.9639
  JAN-08-2009 11:05:00      0.000     0.000    0.9506
  JAN-08-2009 11:10:00      0.000     0.000    0.9376
  JAN-08-2009 11:15:00      0.000     0.000    0.9249
  JAN-08-2009 11:20:00      0.000     0.000    0.9123
  JAN-08-2009 11:25:00      0.000     0.000    0.9001
  JAN-08-2009 11:30:00      0.000     0.000    0.8880
  JAN-08-2009 11:35:00      0.000     0.000    0.8762
  JAN-08-2009 11:40:00      0.000     0.000    0.8646
  JAN-08-2009 11:45:00      0.000     0.000    0.8532
  JAN-08-2009 11:50:00      0.000     0.000    0.8420
  JAN-08-2009 11:55:00      0.000     0.000    0.8311
  JAN-08-2009 12:00:00      0.000     0.000    0.8203
  JAN-08-2009 12:05:00      0.000     0.000    0.8097
  JAN-08-2009 12:10:00      0.000     0.000    0.7993
  JAN-08-2009 12:15:00      0.000     0.000    0.7891
  JAN-08-2009 12:20:00      0.000     0.000    0.7791
  JAN-08-2009 12:25:00      0.000     0.000    0.7693
  JAN-08-2009 12:30:00      0.000     0.000    0.7596
  JAN-08-2009 12:35:00      0.000     0.000    0.7501
  JAN-08-2009 12:40:00      0.000     0.000    0.7407
  JAN-08-2009 12:45:00      0.000     0.000    0.7316
  JAN-08-2009 12:50:00      0.000     0.000    0.7226
  JAN-08-2009 12:55:00      0.000     0.000    0.7137
  JAN-08-2009 13:00:00      0.000     0.000    0.7050
  JAN-08-2009 13:05:00      0.000     0.000    0.6964
  JAN-08-2009 13:10:00      0.000     0.000    0.6880
  JAN-08-2009 13:15:00      0.000     0.000    0.6797
  JAN-08-2009 13:20:00      0.000     0.000    0.6716
  JAN-08-2009 13:25:00      0.000     0.000    0.6636
  JAN-08-2009 13:30:00      0.000     0.000    0.6558
  JAN-08-2009 13:35:00      0.000     0.000    0.6480
  JAN-08-2009 13:40:00      0.000     0.000    0.6404
  JAN-08-2009 13:45:00      0.000     0.000    0.6329
  JAN-08-2009 13:50:00      0.000     0.000    0.6256
  JAN-08-2009 13:55:00      0.000     0.000    0.6183
  JAN-08-2009 14:00:00      0.000     0.000    0.6112
  JAN-08-2009 14:05:00      0.000     0.000    0.6042
  JAN-08-2009 14:10:00      0.000     0.000    0.5973
  JAN-08-2009 14:15:00      0.000     0.000    0.5905
  JAN-08-2009 14:20:00      0.000     0.000    0.5838
  JAN-08-2009 14:25:00      0.000     0.000    0.5773
  JAN-08-2009 14:30:00      0.000     0.000    0.5708
  JAN-08-2009 14:35:00      0.000     0.000    0.5644
  JAN-08-2009 14:40:00      0.000     0.000    0.5581
  JAN-08-2009 14:45:00      0.000     0.000    0.5520
  JAN-08-2009 14:50:00      0.000     0.000    0.5459
  JAN-08-2009 14:55:00      0.000     0.000    0.5399
  JAN-08-2009 15:00:00      0.000     0.000    0.5340
  JAN-08-2009 15:05:00      0.000     0.000    0.5282
  JAN-08-2009 15:10:00      0.000     0.000    0.5225
  JAN-08-2009 15:15:00      0.000     0.000    0.5169
  JAN-08-2009 15:20:00      0.000     0.000    0.5113
  JAN-08-2009 15:25:00      0.000     0.000    0.5059
  JAN-08-2009 15:30:00      0.000     0.000    0.5005
  JAN-08-2009 15:35:00      0.000     0.000    0.4952
  JAN-08-2009 15:40:00      0.000     0.000    0.4900
  JAN-08-2009 15:45:00      0.000     0.000    0.4848
  JAN-08-2009 15:50:00      0.000     0.000    0.4798
  JAN-08-2009 15:55:00      0.000     0.000    0.4748
  JAN-08-2009 16:00:00      0.120     0.000    0.4698
  JAN-08-2009 16:05:00      0.120     0.000    0.4650
  JAN-08-2009 16:10:00      0.120     0.000    0.4602
  JAN-08-2009 16:15:00      0.120     0.000    0.5399
  JAN-08-2009 16:20:00      0.000     0.000    0.6237
  JAN-08-2009 16:25:00      0.120     0.000    0.7113
  JAN-08-2009 16:30:00      0.120     0.000    0.8022
  JAN-08-2009 16:35:00      0.120     0.000    0.7920
  JAN-08-2009 16:40:00      0.120     0.000    0.8857
  JAN-08-2009 16:45:00      0.120     0.000    0.9823
  JAN-08-2009 16:50:00      0.000     0.000    1.0815
  JAN-08-2009 16:55:00      0.120     0.000    1.1829
  JAN-08-2009 17:00:00      0.000     0.000    1.2864
  JAN-08-2009 17:05:00      0.120     0.000    1.2665
  JAN-08-2009 17:10:00      0.000     0.000    1.3715
  JAN-08-2009 17:15:00      0.120     0.000    1.3497
  JAN-08-2009 17:20:00      0.120     0.000    1.4560
  JAN-08-2009 17:25:00      0.000     0.000    1.4324
  JAN-08-2009 17:30:00      0.120     0.000    1.5397
  JAN-08-2009 17:35:00      0.120     0.000    1.6483
  JAN-08-2009 17:40:00      0.120     0.000    1.6202
  JAN-08-2009 17:45:00      0.000     0.000    1.7296
  JAN-08-2009 17:50:00      0.000     0.000    1.8399
  JAN-08-2009 17:55:00      0.000     0.000    1.9509
  JAN-08-2009 18:00:00      0.120     0.000    1.9153
  JAN-08-2009 18:05:00      0.000     0.000    1.8807
  JAN-08-2009 18:10:00      0.000     0.000    1.8469
  JAN-08-2009 18:15:00      0.000     0.000    1.9579
  JAN-08-2009 18:20:00      0.000     0.000    1.9222
  JAN-08-2009 18:25:00      0.000     0.000    1.8874
  JAN-08-2009 18:30:00      0.000     0.000    1.8534
  JAN-08-2009 18:35:00      0.000     0.000    1.8204
  JAN-08-2009 18:40:00      0.000     0.000    1.7881
  JAN-08-2009 18:45:00      0.000     0.000    1.7566
  JAN-08-2009 18:50:00      0.120     0.000    1.7259
  JAN-08-2009 18:55:00      0.000     0.000    1.6960
  JAN-08-2009 19:00:00      0.000     0.000    1.6668
  JAN-08-2009 19:05:00      0.000     0.000    1.7766
  JAN-08-2009 19:10:00      0.000     0.000    1.7454
  JAN-08-2009 19:15:00      0.000     0.000    1.7150
  JAN-08-2009 19:20:00      0.000     0.000    1.6853
  JAN-08-2009 19:25:00      0.000     0.000    1.6563
  JAN-08-2009 19:30:00      0.000     0.000    1.6280
  JAN-08-2009 19:35:00      0.000     0.000    1.6005
  JAN-08-2009 19:40:00      0.000     0.000    1.5735
  JAN-08-2009 19:45:00      0.000     0.000    1.5472
  JAN-08-2009 19:50:00      0.000     0.000    1.5215
  JAN-08-2009 19:55:00      0.000     0.000    1.4964
  JAN-08-2009 20:00:00      0.000     0.000    1.4719
  JAN-08-2009 20:05:00      0.000     0.000    1.4479
  JAN-08-2009 20:10:00      0.000     0.000    1.4245
  JAN-08-2009 20:15:00      0.000     0.000    1.4016
  JAN-08-2009 20:20:00      0.000     0.000    1.3792
  JAN-08-2009 20:25:00      0.000     0.000    1.3573
  JAN-08-2009 20:30:00      0.000     0.000    1.3359
  JAN-08-2009 20:35:00      0.000     0.000    1.3150
  JAN-08-2009 20:40:00      0.000     0.000    1.2945
  JAN-08-2009 20:45:00      0.000     0.000    1.2745
  JAN-08-2009 20:50:00      0.000     0.000    1.2549
  JAN-08-2009 20:55:00      0.000     0.000    1.2357
  JAN-08-2009 21:00:00      0.000     0.000    1.2169
  JAN-08-2009 21:05:00      0.000     0.000    1.1986
  JAN-08-2009 21:10:00      0.000     0.000    1.1806
  JAN-08-2009 21:15:00      0.000     0.000    1.1630
  JAN-08-2009 21:20:00      0.000     0.000    1.1457
  JAN-08-2009 21:25:00      0.000     0.000    1.1289
  JAN-08-2009 21:30:00      0.000     0.000    1.1123
  JAN-08-2009 21:35:00      0.000     0.000    1.0961
  JAN-08-2009 21:40:00      0.000     0.000    1.0803
  JAN-08-2009 21:45:00      0.000     0.000    1.0647
  JAN-08-2009 21:50:00      0.000     0.000    1.0495
  JAN-08-2009 21:55:00      0.000     0.000    1.0345
  JAN-08-2009 22:00:00      0.000     0.000    1.0199
  JAN-08-2009 22:05:00      0.000     0.000    1.0056
  JAN-08-2009 22:10:00      0.000     0.000    0.9915
  JAN-08-2009 22:15:00      0.000     0.000    0.9777
  JAN-08-2009 22:20:00      0.000     0.000    0.9642
  JAN-08-2009 22:25:00      0.000     0.000    0.9509
  JAN-08-2009 22:30:00      0.000     0.000    0.9379
  JAN-08-2009 22:35:00      0.000     0.000    0.9251
  JAN-08-2009 22:40:00      0.000     0.000    0.9126
  JAN-08-2009 22:45:00      0.000     0.000    0.9003
  JAN-08-2009 22:50:00      0.000     0.000    0.8883
  JAN-08-2009 22:55:00      0.000     0.000    0.8765
  JAN-08-2009 23:00:00      0.120     0.000    0.8649
  JAN-08-2009 23:05:00      0.000     0.000    0.8535
  JAN-08-2009 23:10:00      0.000     0.000    0.8423
  JAN-08-2009 23:15:00      0.000     0.000    0.9376
  JAN-08-2009 23:20:00      0.000     0.000    0.9248
  JAN-08-2009 23:25:00      0.000     0.000    0.9123
  JAN-08-2009 23:30:00      0.000     0.000    0.9001
  JAN-08-2009 23:35:00      0.000     0.000    0.8880
  JAN-08-2009 23:40:00      0.000     0.000    0.8762
  JAN-08-2009 23:45:00      0.000     0.000    0.8646
  JAN-08-2009 23:50:00      0.000     0.000    0.8532
  JAN-08-2009 23:55:00      0.000     0.000    0.8420
  JAN-09-2009 00:00:00      0.000     0.000    0.8311
  JAN-09-2009 00:05:00      0.000     0.000    0.8203
  JAN-09-2009 00:10:00      0.000     0.000    0.8097
  JAN-09-2009 00:15:00      0.000     0.000    0.7993
  JAN-09-2009 00:20:00      0.000     0.000    0.7891
  JAN-09-2009 00:25:00      0.000     0.000    0.7791
  JAN-09-2009 00:30:00      0.000     0.000    0.7692
  JAN-09-2009 00:35:00      0.000     0.000    0.7596
  JAN-09-2009 00:40:00      0.000     0.000    0.7501
  JAN-09-2009 00:45:00      0.000     0.000    0.7407
  JAN-09-2009 00:50:00      0.000     0.000    0.7316
  JAN-09-2009 00:55:00      0.000     0.000    0.7226
  JAN-09-2009 01:00:00      0.000     0.000    0.7137
  JAN-09-2009 01:05:00      0.000     0.000    0.7050
  JAN-09-2009 01:10:00      0.000     0.000    0.6964
  JAN-09-2009 01:15:00      0.000     0.000    0.6880
  JAN-09-2009 01:20:00      0.000     0.000    0.6797
  JAN-09-2009 01:25:00      0.000     0.000    0.6716
  JAN-09-2009 01:30:00      0.000     0.000    0.6636
  JAN-09-2009 01:35:00      0.000     0.000    0.6557
  JAN-09-2009 01:40:00      0.000     0.000    0.6480
  JAN-09-2009 01:45:00      0.000     0.000    0.6404
  JAN-09-2009 01:50:00      0.000     0.000    0.6329
  JAN-09-2009 01:55:00      0.000     0.000    0.6256
  JAN-09-2009 02:00:00      0.000     0.000    0.6183
  JAN-09-2009 02:05:00      0.000     0.000    0.6112
  JAN-09-2009 02:10:00      0.000     0.000    0.6042
  JAN-09-2009 02:15:00      0.000     0.000    0.5973
  JAN-09-2009 02:20:00      0.000     0.000    0.5905
  JAN-09-2009 02:25:00      0.000     0.000    0.5838
  JAN-09-2009 02:30:00      0.000     0.000    0.5773
  JAN-09-2009 02:35:00      0.000     0.000    0.5708
  JAN-09-2009 02:40:00      0.000     0.000    0.5644
  JAN-09-2009 02:45:00      0.000     0.000    0.5581
  JAN-09-2009 02:50:00      0.000     0.000    0.5520
  JAN-09-2009 02:55:00      0.000     0.000    0.5459
  JAN-09-2009 03:00:00      0.000     0.000    0.5399
  JAN-09-2009 03:05:00      0.000     0.000    0.5340
  JAN-09-2009 03:10:00      0.000     0.000    0.5282
  JAN-09-2009 03:15:00      0.000     0.000    0.5225
  JAN-09-2009 03:20:00      0.000     0.000    0.5169
  JAN-09-2009 03:25:00      0.000     0.000    0.5113
  JAN-09-2009 03:30:00      0.000     0.000    0.5059
  JAN-09-2009 03:35:00      0.000     0.000    0.5005
  JAN-09-2009 03:40:00      0.000     0.000    0.4952
  JAN-09-2009 03:45:00      0.000     0.000    0.4900
  JAN-09-2009 03:50:00      0.000     0.000    0.4848
  JAN-09-2009 03:55:00      0.000     0.000    0.4797
  JAN-09-2009 04:00:00      0.000     0.000    0.4748
  JAN-09-2009 04:05:00      0.000     0.000    0.4698
  JAN-09-2009 04:10:00      0.000     0.000    0.4650
  JAN-09-2009 04:15:00      0.000     0.000    0.4602
  JAN-09-2009 04:20:00      0.000     0.000    0.4555
  JAN-09-2009 04:25:00      0.000     0.000    0.4508
  JAN-09-2009 04:30:00      0.000     0.000    0.4463
  JAN-09-2009 04:35:00      0.000     0.000    0.4417
  JAN-09-2009 04:40:00      0.000     0.000    0.4373
  JAN-09-2009 04:45:00      0.000     0.000    0.4329
  JAN-09-2009 04:50:00      0.000     0.000    0.4286
  JAN-09-2009 04:55:00      0.000     0.000    0.4243
  JAN-09-2009 05:00:00      0.000     0.000    0.4201
  JAN-09-2009 05:05:00      0.000     0.000    0.4160
  JAN-09-2009 05:10:00      0.000     0.000    0.4119
  JAN-09-2009 05:15:00      0.000     0.000    0.4078
  JAN-09-2009 05:20:00      0.000     0.000    0.4039
  JAN-09-2009 05:25:00      0.000     0.000    0.3999
  JAN-09-2009 05:30:00      0.000     0.000    0.3961
  JAN-09-2009 05:35:00      0.000     0.000    0.3922
  JAN-09-2009 05:40:00      0.000     0.000    0.3885
  JAN-09-2009 05:45:00      0.000     0.000    0.3848
  JAN-09-2009 05:50:00      0.000     0.000    0.3811
  JAN-09-2009 05:55:00      0.000     0.000    0.3775
  JAN-09-2009 06:00:00      0.000     0.000    0.3739
  JAN-09-2009 06:05:00      0.000     0.000    0.3704
  JAN-09-2009 06:10:00      0.000     0.000    0.3669
  JAN-09-2009 06:15:00      0.000     0.000    0.3635
  JAN-09-2009 06:20:00      0.000     0.000    0.3601
  JAN-09-2009 06:25:00      0.000     0.000    0.3567
  JAN-09-2009 06:30:00      0.000     0.000    0.3534
  JAN-09-2009 06:35:00      0.000     0.000    0.3502
  JAN-09-2009 06:40:00      0.000     0.000    0.3470
  JAN-09-2009 06:45:00      0.000     0.000    0.3438
  JAN-09-2009 06:50:00      0.000     0.000    0.3407
  JAN-09-2009 06:55:00      0.000     0.000    0.3376
  JAN-09-2009 07:00:00      0.000     0.000    0.3345
  JAN-09-2009 07:05:00      0.000     0.000    0.3315
  JAN-09-2009 07:10:00      0.000     0.000    0.3285
  JAN-09-2009 07:15:00      0.000     0.000    0.3256
  JAN-09-2009 07:20:00      0.000     0.000    0.3227
  JAN-09-2009 07:25:00      0.000     0.000    0.3198
  JAN-09-2009 07:30:00      0.000     0.000    0.3170
  JAN-09-2009 07:35:00      0.000     0.000    0.3142
  JAN-09-2009 07:40:00      0.000     0.000    0.3114
  JAN-09-2009 07:45:00      0.000     0.000    0.3087
  JAN-09-2009 07:50:00      0.000     0.000    0.3060
  JAN-09-2009 07:55:00      0.000     0.000    0.3033
  JAN-09-2009 08:00:00      0.000     0.000    0.3007
  JAN-09-2009 08:05:00      0.000     0.000    0.2981
  JAN-09-2009 08:10:00      0.000     0.000    0.2955
  JAN-09-2009 08:15:00      0.000     0.000    0.2930
  JAN-09-2009 08:20:00      0.000     0.000    0.2905
  JAN-09-2009 08:25:00      0.000     0.000    0.2880
  JAN-09-2009 08:30:00      0.000     0.000    0.2856
  JAN-09-2009 08:35:00      0.000     0.000    0.2831
  JAN-09-2009 08:40:00      0.000     0.000    0.2808
  JAN-09-2009 08:45:00      0.000     0.000    0.2784
  JAN-09-2009 08:50:00      0.000     0.000    0.2761
  JAN-09-2009 08:55:00      0.000     0.000    0.2738
  JAN-09-2009 09:00:00      0.000     0.000    0.2715
  JAN-09-2009 09:05:00      0.000     0.000    0.2692
  JAN-09-2009 09:10:00      0.000     0.000    0.2670
  JAN-09-2009 09:15:00      0.000     0.000    0.2648
  JAN-09-2009 09:20:00      0.000     0.000    0.2626
  JAN-09-2009 09:25:00      0.000     0.000    0.2605
  JAN-09-2009 09:30:00      0.000     0.000    0.2584
  JAN-09-2009 09:35:00      0.000     0.000    0.2563
  JAN-09-2009 09:40:00      0.000     0.000    0.2542
  JAN-09-2009 09:45:00      0.000     0.000    0.2521
  JAN-09-2009 09:50:00      0.000     0.000    0.2501
  JAN-09-2009 09:55:00      0.000     0.000    0.2481
  JAN-09-2009 10:00:00      0.000     0.000    0.2461
  JAN-09-2009 10:05:00      0.000     0.000    0.2441
  JAN-09-2009 10:10:00      0.000     0.000    0.2422
  JAN-09-2009 10:15:00      0.000     0.000    0.2403
  JAN-09-2009 10:20:00      0.000     0.000    0.2384
  JAN-09-2009 10:25:00      0.000     0.000    0.2365
  JAN-09-2009 10:30:00      0.000     0.000    0.2346
  JAN-09-2009 10:35:00      0.000     0.000    0.2328
  JAN-09-2009 10:40:00      0.000     0.000    0.2310
  JAN-09-2009 10:45:00      0.000     0.000    0.2292
  JAN-09-2009 10:50:00      0.000     0.000    0.2274
  JAN-09-2009 10:55:00      0.000     0.000    0.2257
  JAN-09-2009 11:00:00      0.000     0.000    0.2239
  JAN-09-2009 11:05:00      0.000     0.000    0.2222
  JAN-09-2009 11:10:00      0.000     0.000    0.2205
  JAN-09-2009 11:15:00      0.000     0.000    0.2188
  JAN-09-2009 11:20:00      0.000     0.000    0.2172
  JAN-09-2009 11:25:00      0.000     0.000    0.2155
  JAN-09-2009 11:30:00      0.000     0.000    0.2139
  JAN-09-2009 11:35:00      0.000     0.000    0.2123
  JAN-09-2009 11:40:00      0.000     0.000    0.2107
  JAN-09-2009 11:45:00      0.000     0.000    0.2091
  JAN-09-2009 11:50:00      0.000     0.000    0.2075
  JAN-09-2009 11:55:00      0.000     0.000    0.2060
  JAN-09-2009 12:00:00      0.000     0.000    0.2044
  JAN-09-2009 12:05:00      0.000     0.000    0.2029
  JAN-09-2009 12:10:00      0.000     0.000    0.2014
  JAN-09-2009 12:15:00      0.000     0.000    0.2000
  JAN-09-2009 12:20:00      0.000     0.000    0.1985
  JAN-09-2009 12:25:00      0.000     0.000    0.1970
  JAN-09-2009 12:30:00      0.000     0.000    0.1956
  JAN-09-2009 12:35:00      0.000     0.000    0.1942
  JAN-09-2009 12:40:00      0.000     0.000    0.1928
  JAN-09-2009 12:45:00      0.000     0.000    0.1914
  JAN-09-2009 12:50:00      0.000     0.000    0.1900
  JAN-09-2009 12:55:00      0.000     0.000    0.1886
  JAN-09-2009 13:00:00      0.000     0.000    0.1873
  JAN-09-2009 13:05:00      0.000     0.000    0.1859
  JAN-09-2009 13:10:00      0.000     0.000    0.1846
  JAN-09-2009 13:15:00      0.000     0.000    0.1833
  JAN-09-2009 13:20:00      0.000     0.000    0.1820
  JAN-09-2009 13:25:00      0.000     0.000    0.1807
  JAN-09-2009 13:30:00      0.000     0.000    0.1794
  JAN-09-2009 13:35:00      0.000     0.000    0.1782
  JAN-09-2009 13:40:00      0.000     0.000    0.1769
  JAN-09-2009 13:45:00      0.000     0.000    0.1757
  JAN-09-2009 13:50:00      0.000     0.000    0.1745
  JAN-09-2009 13:55:00      0.000     0.000    0.1732
  JAN-09-2009 14:00:00      0.000     0.000    0.1720
  JAN-09-2009 14:05:00      0.000     0.000    0.1709
  JAN-09-2009 14:10:00      0.000     0.000    0.1697
  JAN-09-2009 14:15:00      0.000     0.000    0.1685
  JAN-09-2009 14:20:00      0.000     0.000    0.1674
  JAN-09-2009 14:25:00      0.000     0.000    0.1662
  JAN-09-2009 14:30:00      0.000     0.000    0.1651
  JAN-09-2009 14:35:00      0.000     0.000    0.1640
  JAN-09-2009 14:40:00      0.000     0.000    0.1628
  JAN-09-2009 14:45:00      0.000     0.000    0.1617
  JAN-09-2009 14:50:00      0.000     0.000    0.1607
  JAN-09-2009 14:55:00      0.000     0.000    0.1596
  JAN-09-2009 15:00:00      0.000     0.000    0.1585
  JAN-09-2009 15:05:00      0.000     0.000    0.1574
  JAN-09-2009 15:10:00      0.000     0.000    0.1564
  JAN-09-2009 15:15:00      0.000     0.000    0.1553
  JAN-09-2009 15:20:00      0.000     0.000    0.1543
  JAN-09-2009 15:25:00      0.000     0.000    0.1533
  JAN-09-2009 15:30:00      0.000     0.000    0.1523
  JAN-09-2009 15:35:00      0.000     0.000    0.1513
  JAN-09-2009 15:40:00      0.000     0.000    0.1503
  JAN-09-2009 15:45:00      0.000     0.000    0.1493
  JAN-09-2009 15:50:00      0.000     0.000    0.1483
  JAN-09-2009 15:55:00      0.000     0.000    0.1474
  JAN-09-2009 16:00:00      0.000     0.000    0.1464
  JAN-09-2009 16:05:00      0.000     0.000    0.1455
  JAN-09-2009 16:10:00      0.000     0.000    0.1445
  JAN-09-2009 16:15:00      0.000     0.000    0.1436
  JAN-09-2009 16:20:00      0.000     0.000    0.1427
  JAN-09-2009 16:25:00      0.000     0.000    0.1417
  JAN-09-2009 16:30:00      0.000     0.000    0.1408
  JAN-09-2009 16:35:00      0.000     0.000    0.1399
  JAN-09-2009 16:40:00      0.000     0.000    0.1390
  JAN-09-2009 16:45:00      0.000     0.000    0.1382
  JAN-09-2009 16:50:00      0.000     0.000    0.1373
  JAN-09-2009 16:55:00      0.000     0.000    0.1364
  JAN-09-2009 17:00:00      0.000     0.000    0.1356
  JAN-09-2009 17:05:00      0.000     0.000    0.1347
  JAN-09-2009 17:10:00      0.000     0.000    0.1339
  JAN-09-2009 17:15:00      0.000     0.000    0.1330
  JAN-09-2009 17:20:00      0.000     0.000    0.1322
  JAN-09-2009 17:25:00      0.000     0.000    0.1314
  JAN-09-2009 17:30:00      0.000     0.000    0.1306
  JAN-09-2009 17:35:00      0.000     0.000    0.1298
  JAN-09-2009 17:40:00      0.000     0.000    0.1290
  JAN-09-2009 17:45:00      0.000     0.000    0.1282
  JAN-09-2009 17:50:00      0.000     0.000    0.1274
  JAN-09-2009 17:55:00      0.000     0.000    0.1266
  JAN-09-2009 18:00:00      0.000     0.000    0.1258
  JAN-09-2009 18:05:00      0.000     0.000    0.1250
  JAN-09-2009 18:10:00      0.000     0.000    0.1243
  JAN-09-2009 18:15:00      0.000     0.000    0.1235
  JAN-09-2009 18:20:00      0.000     0.000    0.1228
  JAN-09-2009 18:25:00      0.000     0.000    0.1220
  JAN-09-2009 18:30:00      0.000     0.000    0.1213
  JAN-09-2009 18:35:00      0.000     0.000    0.1206
  JAN-09-2009 18:40:00      0.000     0.000    0.1199
  JAN-09-2009 18:45:00      0.000     0.000    0.1191
  JAN-09-2009 18:50:00      0.000     0.000    0.1184
  JAN-09-2009 18:55:00      0.000     0.000    0.1177
  JAN-09-2009 19:00:00      0.000     0.000    0.1170
  JAN-09-2009 19:05:00      0.000     0.000    0.1163
  JAN-09-2009 19:10:00      0.000     0.000    0.1156
  JAN-09-2009 19:15:00      0.000     0.000    0.1150
  JAN-09-2009 19:20:00      0.000     0.000    0.1143
  JAN-09-2009 19:25:00      0.000     0.000    0.1136
  JAN-09-2009 19:30:00      0.000     0.000    0.1129
  JAN-09-2009 19:35:00      0.000     0.000    0.1123
  JAN-09-2009 19:40:00      0.000     0.000    0.1116
  JAN-09-2009 19:45:00      0.000     0.000    0.1110
  JAN-09-2009 19:50:00      0.000     0.000    0.1103
  JAN-09-2009 19:55:00      0.000     0.000    0.1097
  JAN-09-2009 20:00:00      0.000     0.000    0.1091
  JAN-09-2009 20:05:00      0.000     0.000    0.1084
  JAN-09-2009 20:10:00      0.000     0.000    0.1078
  JAN-09-2009 20:15:00      0.000     0.000    0.1072
  JAN-09-2009 20:20:00      0.000     0.000    0.1066
  JAN-09-2009 20:25:00      0.000     0.000    0.1060
  JAN-09-2009 20:30:00      0.000     0.000    0.1054
  JAN-09-2009 20:35:00      0.000     0.000    0.1048
  JAN-09-2009 20:40:00      0.000     0.000    0.1042
  JAN-09-2009 20:45:00      0.000     0.000    0.1036
  JAN-09-2009 20:50:00      0.000     0.000    0.1030
  JAN-09-2009 20:55:00      0.000     0.000    0.1024
  JAN-09-2009 21:00:00      0.000     0.000    0.1018
  JAN-09-2009 21:05:00      0.000     0.000    0.1013
  JAN-09-2009 21:10:00      0.000     0.000    0.1007
  JAN-09-2009 21:15:00      0.000     0.000    0.1001
  JAN-09-2009 21:20:00      0.000     0.000    0.0996
  JAN-09-2009 21:25:00      0.000     0.000    0.0990
  JAN-09-2009 21:30:00      0.000     0.000    0.0985
  JAN-09-2009 21:35:00      0.000     0.000    0.0979
  JAN-09-2009 21:40:00      0.000     0.000    0.0974
  JAN-09-2009 21:45:00      0.000     0.000    0.0969
  JAN-09-2009 21:50:00      0.000     0.000    0.0963
  JAN-09-2009 21:55:00      0.000     0.000    0.0958
  JAN-09-2009 22:00:00      0.000     0.000    0.0953
  JAN-09-2009 22:05:00      0.000     0.000    0.0948
  JAN-09-2009 22:10:00      0.000     0.000    0.0942
  JAN-09-2009 22:15:00      0.000     0.000    0.0937
  JAN-09-2009 22:20:00      0.000     0.000    0.0932
  JAN-09-2009 22:25:00      0.000     0.000    0.0927
  JAN-09-2009 22:30:00      0.000     0.000    0.0922
  JAN-09-2009 22:35:00      0.000     0.000    0.0917
  JAN-09-2009 22:40:00      0.000     0.000    0.0912
  JAN-09-2009 22:45:00      0.000     0.000    0.0907
  JAN-09-2009 22:50:00      0.000     0.000    0.0903
  JAN-09-2009 22:55:00      0.000     0.000    0.0898
  JAN-09-2009 23:00:00      0.000     0.000    0.0893
  JAN-09-2009 23:05:00      0.000     0.000    0.0888
  JAN-09-2009 23:10:00      0.000     0.000    0.0883
  JAN-09-2009 23:15:00      0.000     0.000    0.0879
  JAN-09-2009 23:20:00      0.000     0.000    0.0874
  JAN-09-2009 23:25:00      0.000     0.000    0.0870
  JAN-09-2009 23:30:00      0.000     0.000    0.0865
  JAN-09-2009 23:35:00      0.000     0.000    0.0860
  JAN-09-2009 23:40:00      0.000     0.000    0.0856
  JAN-09-2009 23:45:00      0.000     0.000    0.0851
  JAN-09-2009 23:50:00      0.000     0.000    0.0847
  JAN-09-2009 23:55:00      0.000     0.000    0.0843
  JAN-10-2009 00:00:00      0.000     0.000    0.0838
  JAN-10-2009 00:05:00      0.000     0.000    0.0834
  JAN-10-2009 00:10:00      0.000     0.000    0.0830
  JAN-10-2009 00:15:00      0.000     0.000    0.0825
  JAN-10-2009 00:20:00      0.000     0.000    0.0821
  JAN-10-2009 00:25:00      0.000     0.000    0.0817
  JAN-10-2009 00:30:00      0.000     0.000    0.0813
  JAN-10-2009 00:35:00      0.000     0.000    0.0808
  JAN-10-2009 00:40:00      0.000     0.000    0.0804
  JAN-10-2009 00:45:00      0.000     0.000    0.0800
  JAN-10-2009 00:50:00      0.000     0.000    0.0796
  JAN-10-2009 00:55:00      0.000     0.000    0.0792
  JAN-10-2009 01:00:00      0.000     0.000    0.0788
  JAN-10-2009 01:05:00      0.000     0.000    0.0784
  JAN-10-2009 01:10:00      0.000     0.000    0.0780
  JAN-10-2009 01:15:00      0.000     0.000    0.0776
  JAN-10-2009 01:20:00      0.000     0.000    0.0772
  JAN-10-2009 01:25:00      0.000     0.000    0.0768
  JAN-10-2009 01:30:00      0.000     0.000    0.0765
  JAN-10-2009 01:35:00      0.000     0.000    0.0761
  JAN-10-2009 01:40:00      0.000     0.000    0.0757
  JAN-10-2009 01:45:00      0.000     0.000    0.0753
  JAN-10-2009 01:50:00      0.000     0.000    0.0749
  JAN-10-2009 01:55:00      0.000     0.000    0.0746
  JAN-10-2009 02:00:00      0.000     0.000    0.0742
  JAN-10-2009 02:05:00      0.000     0.000    0.0738
  JAN-10-2009 02:10:00      0.000     0.000    0.0735
  JAN-10-2009 02:15:00      0.000     0.000    0.0731
  JAN-10-2009 02:20:00      0.000     0.000    0.0727
  JAN-10-2009 02:25:00      0.000     0.000    0.0724
  JAN-10-2009 02:30:00      0.000     0.000    0.0720
  JAN-10-2009 02:35:00      0.000     0.000    0.0717
  JAN-10-2009 02:40:00      0.000     0.000    0.0713
  JAN-10-2009 02:45:00      0.000     0.000    0.0710
  JAN-10-2009 02:50:00      0.000     0.000    0.0706
  JAN-10-2009 02:55:00      0.000     0.000    0.0703
  JAN-10-2009 03:00:00      0.000     0.000    0.0700
  JAN-10-2009 03:05:00      0.000     0.000    0.0696
  JAN-10-2009 03:10:00      0.000     0.000    0.0693
  JAN-10-2009 03:15:00      0.000     0.000    0.0690
  JAN-10-2009 03:20:00      0.000     0.000    0.0686
  JAN-10-2009 03:25:00      0.000     0.000    0.0683
  JAN-10-2009 03:30:00      0.000     0.000    0.0680
  JAN-10-2009 03:35:00      0.000     0.000    0.0676
  JAN-10-2009 03:40:00      0.000     0.000    0.0673
  JAN-10-2009 03:45:00      0.000     0.000    0.0670
  JAN-10-2009 03:50:00      0.000     0.000    0.0667
  JAN-10-2009 03:55:00      0.000     0.000    0.0000
  JAN-10-2009 04:00:00      0.000     0.000    0.0000
  JAN-10-2009 04:05:00      0.000     0.000    0.0000
  JAN-10-2009 04:10:00      0.000     0.000    0.0000
  JAN-10-2009 04:15:00      0.000     0.000    0.0000
  JAN-10-2009 04:20:00      0.000     0.000    0.0000
  JAN-10-2009 04:25:00      0.000     0.000    0.0000
  JAN-10-2009 04:30:00      0.000     0.000    0.0000
  JAN-10-2009 04:35:00      0.000     0.000    0.0000
  JAN-10-2009 04:40:00      0.000     0.000    0.0000
  JAN-10-2009 04:45:00      0.000     0.000    0.0000
  JAN-10-2009 04:50:00      0.000     0.000    0.0000
  JAN-10-2009 04:55:00      0.000     0.000    0.0000
  JAN-10-2009 05:00:00      0.000     0.000    0.0000
  JAN-10-2009 05:05:00      0.000     0.000    0.0000
  JAN-10-2009 05:10:00      0.000     0.000    0.0000
  JAN-10-2009 05:15:00      0.000     0.000    0.0000
  JAN-10-2009 05:20:00      0.000     0.000    0.0000
  JAN-10-2009 05:25:00      0.000     0.000    0.0000
  JAN-10-2009 05:30:00      0.000     0.000    0.0000
  JAN-10-2009 05:35:00      0.000     0.000    0.0000
  JAN-10-2009 05:40:00      0.000     0.000    0.0000
  JAN-10-2009 05:45:00      0.000     0.000    0.0000
  JAN-10-2009 05:50:00      0.000     0.000    0.0000
  JAN-10-2009 05:55:00      0.000     0.000    0.0000
  JAN-10-2009 06:00:00      0.000     0.000    0.0000
  JAN-10-2009 06:05:00      0.000     0.000    0.0000
  JAN-10-2009 06:10:00      0.000     0.000    0.0000
  JAN-10-2009 06:15:00      0.000     0.000    0.0000
  JAN-10-2009 06:20:00      0.000     0.000    0.0000
  JAN-10-2009 06:25:00      0.000     0.000    0.0000
  JAN-10-2009 06:30:00      0.000     0.000    0.0000
  JAN-10-2009 06:35:00      0.000     0.000    0.0000
  JAN-10-2009 06:40:00      0.000     0.000    0.0000
  JAN-10-2009 06:45:00      0.000     0.000    0.0000
  JAN-10-2009 06:50:00      0.000     0.000    0.0000
  JAN-10-2009 06:55:00      0.000     0.000    0.0000
  JAN-10-2009 07:00:00      0.000     0.000    0.0000
  JAN-10-2009 07:05:00      0.000     0.000    0.0000
  JAN-10-2009 07:10:00      0.000     0.000    0.0000
  JAN-10-2009 07:15:00      0.000     0.000    0.0000
  JAN-10-2009 07:20:00      0.000     0.000    0.0000
  JAN-10-2009 07:25:00      0.000     0.000    0.0000
  JAN-10-2009 07:30:00      0.000     0.000    0.0000
  JAN-10-2009 07:35:00      0.000     0.000    0.0000
  JAN-10-2009 07:40:00      0.000     0.000    0.0000
  JAN-10-2009 07:45:00      0.000     0.000    0.0000
  JAN-10-2009 07:50:00      0.000     0.000    0.0000
  JAN-10-2009 07:55:00      0.000     0.000    0.0000
  JAN-10-2009 08:00:00      0.000     0.000    0.0000
  JAN-10-2009 08:05:00      0.000     0.000    0.0000
  JAN-10-2009 08:10:00      0.000     0.000    0.0000
  JAN-10-2009 08:15:00      0.000     0.000    0.0000
  JAN-10-2009 08:20:00      0.000     0.000    0.0000
  JAN-10-2009 08:25:00      0.000     0.000    0.0000
  JAN-10-2009 08:30:00      0.000     0.000    0.0000
  JAN-10-2009 08:35:00      0.000     0.000    0.0000
  JAN-10-2009 08:40:00      0.000     0.000    0.0000
  JAN-10-2009 08:45:00      0.000     0.000    0.0000
  JAN-10-2009 08:50:00      0.000     0.000    0.0000
  JAN-10-2009 08:55:00      0.000     0.000    0.0000
  JAN-10-2009 09:00:00      0.000     0.000    0.0000
  JAN-10-2009 09:05:00      0.000     0.000    0.0000
  JAN-10-2009 09:10:00      0.000     0.000    0.0000
  JAN-10-2009 09:15:00      0.000     0.000    0.0000
  JAN-10-2009 09:20:00      0.000     0.000    0.0000
  JAN-10-2009 09:25:00      0.000     0.000    0.0000
  JAN-10-2009 09:30:00      0.000     0.000    0.0000
  JAN-10-2009 09:35:00      0.000     0.000    0.0000
  JAN-10-2009 09:40:00      0.000     0.000    0.0000
  JAN-10-2009 09:45:00      0.000     0.000    0.0000
  JAN-10-2009 09:50:00      0.000     0.000    0.0000
  JAN-10-2009 09:55:00      0.000     0.000    0.0000
  JAN-10-2009 10:00:00      0.000     0.000    0.0000
  JAN-10-2009 10:05:00      0.000     0.000    0.0000
  JAN-10-2009 10:10:00      0.000     0.000    0.0000
  JAN-10-2009 10:15:00      0.000     0.000    0.0000
  JAN-10-2009 10:20:00      0.000     0.000    0.0000
  JAN-10-2009 10:25:00      0.000     0.000    0.0000
  JAN-10-2009 10:30:00      0.000     0.000    0.0000
  JAN-10-2009 10:35:00      0.000     0.000    0.0000
  JAN-10-2009 10:40:00      0.000     0.000    0.0000
  JAN-10-2009 10:45:00      0.000     0.000    0.0000
  JAN-10-2009 10:50:00      0.000     0.000    0.0000
  JAN-10-2009 10:55:00      0.000     0.000    0.0000
  JAN-10-2009 11:00:00      0.000     0.000    0.0000
  JAN-10-2009 11:05:00      0.000     0.000    0.0000
  JAN-10-2009 11:10:00      0.000     0.000    0.0000
  JAN-10-2009 11:15:00      0.000     0.000    0.0000
  JAN-10-2009 11:20:00      0.000     0.000    0.0000
  JAN-10-2009 11:25:00      0.000     0.000    0.0000
  JAN-10-2009 11:30:00      0.000     0.000    0.0000
  JAN-10-2009 11:35:00      0.000     0.000    0.0000
  JAN-10-2009 11:40:00      0.000     0.000    0.0000
  JAN-10-2009 11:45:00      0.000     0.000    0.0000
  JAN-10-2009 11:50:00      0.000     0.000    0.0000
  JAN-10-2009 11:55:00      0.000     0.000    0.0000
  JAN-10-2009 12:00:00      0.000     0.000    0.0000
  JAN-10-2009 12:05:00      0.000     0.000    0.0000
  JAN-10-2009 12:10:00      0.000     0.000    0.0000
  JAN-10-2009 12:15:00      0.000     0.000    0.0000
  JAN-10-2009 12:20:00      0.000     0.000    0.0000
  JAN-10-2009 12:25:00      0.000     0.000    0.0000
  JAN-10-2009 12:30:00      0.000     0.000    0.0000
  JAN-10-2009 12:35:00      0.000     0.000    0.0000
  JAN-10-2009 12:40:00      0.000     0.000    0.0000
  JAN-10-2009 12:45:00      0.000     0.000    0.0000
  JAN-10-2009 12:50:00      0.000     0.000    0.0000
  JAN-10-2009 12:55:00      0.000     0.000    0.0000
  JAN-10-2009 13:00:00      0.000     0.000    0.0000
  JAN-10-2009 13:05:00      0.000     0.000    0.0000
  JAN-10-2009 13:10:00      0.000     0.000    0.0000
  JAN-10-2009 13:15:00      0.000     0.000    0.0000
  JAN-10-2009 13:20:00      0.000     0.000    0.0000
  JAN-10-2009 13:25:00      0.000     0.000    0.0000
  JAN-10-2009 13:30:00      0.000     0.000    0.0000
  JAN-10-2009 13:35:00      0.000     0.000    0.0000
  JAN-10-2009 13:40:00      0.000     0.000    0.0000
  JAN-10-2009 13:45:00      0.000     0.000    0.0000
  JAN-10-2009 13:50:00      0.000     0.000    0.0000
  JAN-10-2009 13:55:00      0.000     0.000    0.0000
  JAN-10-2009 14:00:00      0.000     0.000    0.0000
  JAN-10-2009 14:05:00      0.000     0.000    0.0000
  JAN-10-2009 14:10:00      0.000     0.000    0.0000
  JAN-10-2009 14:15:00      0.000     0.000    0.0000
  JAN-10-2009 14:20:00      0.000     0.000    0.0000
  JAN-10-2009 14:25:00      0.000     0.000    0.0000
  JAN-10-2009 14:30:00      0.000     0.000    0.0000
  JAN-10-2009 14:35:00      0.000     0.000    0.0000
  JAN-10-2009 14:40:00      0.000     0.000    0.0000
  JAN-10-2009 14:45:00      0.000     0.000    0.0000
  JAN-10-2009 14:50:00      0.000     0.000    0.0000
  JAN-10-2009 14:55:00      0.000     0.000    0.0000
  JAN-10-2009 15:00:00      0.000     0.000    0.0000
  JAN-10-2009 15:05:00      0.000     0.000    0.0000
  JAN-10-2009 15:10:00      0.000     0.000    0.0000
  JAN-10-2009 15:15:00      0.000     0.000    0.0000
  JAN-10-2009 15:20:00      0.000     0.000    0.0000
  JAN-10-2009 15:25:00      0.000     0.000    0.0000
  JAN-10-2009 15:30:00      0.000     0.000    0.0000
  JAN-10-2009 15:35:00      0.000     0.000    0.0000
  JAN-10-2009 15:40:00      0.000     0.000    0.0000
  JAN-10-2009 15:45:00      0.000     0.000    0.0000
  JAN-10-2009 15:50:00      0.000     0.000    0.0000
  JAN-10-2009 15:55:00      0.000     0.000    0.0000
  JAN-10-2009 16:00:00      0.000     0.000    0.0000
  JAN-10-2009 16:05:00      0.000     0.000    0.0000
  JAN-10-2009 16:10:00      0.000     0.000    0.0000
  JAN-10-2009 16:15:00      0.000     0.000    0.0000
  JAN-10-2009 16:20:00      0.000     0.000    0.0000
  JAN-10-2009 16:25:00      0.000     0.000    0.0000
  JAN-10-2009 16:30:00      0.000     0.000    0.0000
  JAN-10-2009 16:35:00      0.000     0.000    0.0000
  JAN-10-2009 16:40:00      0.000     0.000    0.0000
  JAN-10-2009 16:45:00      0.000     0.000    0.0000
  JAN-10-2009 16:50:00      0.000     0.000    0.0000
  JAN-10-2009 16:55:00      0.120     0.000    0.0000
  JAN-10-2009 17:00:00      0.000     0.000    0.0000
  JAN-10-2009 17:05:00      0.000     0.000    0.0000
  JAN-10-2009 17:10:00      0.000     0.000    0.0680
  JAN-10-2009 17:15:00      0.000     0.000    0.0677
  JAN-10-2009 17:20:00      0.000     0.000    0.0674
  JAN-10-2009 17:25:00      0.000     0.000    0.0670
  JAN-10-2009 17:30:00      0.000     0.000    0.0667
  JAN-10-2009 17:35:00      0.000     0.000    0.0000
  JAN-10-2009 17:40:00      0.000     0.000    0.0000
  JAN-10-2009 17:45:00      0.000     0.000    0.0000
  JAN-10-2009 17:50:00      0.000     0.000    0.0000
  JAN-10-2009 17:55:00      0.000     0.000    0.0000
  JAN-10-2009 18:00:00      0.000     0.000    0.0000
  JAN-10-2009 18:05:00      0.000     0.000    0.0000
  JAN-10-2009 18:10:00      0.000     0.000    0.0000
  JAN-10-2009 18:15:00      0.000     0.000    0.0000
  JAN-10-2009 18:20:00      0.000     0.000    0.0000
  JAN-10-2009 18:25:00      0.000     0.000    0.0000
  JAN-10-2009 18:30:00      0.000     0.000    0.0000
  JAN-10-2009 18:35:00      0.000     0.000    0.0000
  JAN-10-2009 18:40:00      0.000     0.000    0.0000
  JAN-10-2009 18:45:00      0.000     0.000    0.0000
  JAN-10-2009 18:50:00      0.000     0.000    0.0000
  JAN-10-2009 18:55:00      0.000     0.000    0.0000
  JAN-10-2009 19:00:00      0.000     0.000    0.0000
  JAN-10-2009 19:05:00      0.000     0.000    0.0000
  JAN-10-2009 19:10:00      0.000     0.000    0.0000
  JAN-10-2009 19:15:00      0.000     0.000    0.0000
  JAN-10-2009 19:20:00      0.000     0.000    0.0000
  JAN-10-2009 19:25:00      0.000     0.000    0.0000
  JAN-10-2009 19:30:00      0.000     0.000    0.0000
  JAN-10-2009 19:35:00      0.000     0.000    0.0000
  JAN-10-2009 19:40:00      0.000     0.000    0.0000
  JAN-10-2009 19:45:00      0.000     0.000    0.0000
  JAN-10-2009 19:50:00      0.000     0.000    0.0000
  JAN-10-2009 19:55:00      0.000     0.000    0.0000
  JAN-10-2009 20:00:00      0.000     0.000    0.0000
  JAN-10-2009 20:05:00      0.000     0.000    0.0000
  JAN-10-2009 20:10:00      0.120     0.000    0.0000
  JAN-10-2009 20:15:00      0.000     0.000    0.0000
  JAN-10-2009 20:20:00      0.000     0.000    0.0000
  JAN-10-2009 20:25:00      0.000     0.000    0.0965
  JAN-10-2009 20:30:00      0.000     0.000    0.0960
  JAN-10-2009 20:35:00      0.000     0.000    0.0955
  JAN-10-2009 20:40:00      0.000     0.000    0.0949
  JAN-10-2009 20:45:00      0.000     0.000    0.0944
  JAN-10-2009 20:50:00      0.000     0.000    0.0939
  JAN-10-2009 20:55:00      0.000     0.000    0.0934
  JAN-10-2009 21:00:00      0.000     0.000    0.0929
  JAN-10-2009 21:05:00      0.000     0.000    0.0924
  JAN-10-2009 21:10:00      0.000     0.000    0.0919
  JAN-10-2009 21:15:00      0.000     0.000    0.0914
  JAN-10-2009 21:20:00      0.000     0.000    0.0909
  JAN-10-2009 21:25:00      0.000     0.000    0.0904
  JAN-10-2009 21:30:00      0.000     0.000    0.0899
  JAN-10-2009 21:35:00      0.000     0.000    0.0895
  JAN-10-2009 21:40:00      0.000     0.000    0.0890
  JAN-10-2009 21:45:00      0.000     0.000    0.0885
  JAN-10-2009 21:50:00      0.000     0.000    0.0880
  JAN-10-2009 21:55:00      0.000     0.000    0.0876
  JAN-10-2009 22:00:00      0.000     0.000    0.0871
  JAN-10-2009 22:05:00      0.120     0.000    0.0867
  JAN-10-2009 22:10:00      0.000     0.000    0.0862
  JAN-10-2009 22:15:00      0.000     0.000    0.0857
  JAN-10-2009 22:20:00      0.000     0.000    0.1310
  JAN-10-2009 22:25:00      0.000     0.000    0.1302
  JAN-10-2009 22:30:00      0.120     0.000    0.1294
  JAN-10-2009 22:35:00      0.000     0.000    0.1286
  JAN-10-2009 22:40:00      0.120     0.000    0.1278
  JAN-10-2009 22:45:00      0.120     0.000    0.1796
  JAN-10-2009 22:50:00      0.000     0.000    0.1783
  JAN-10-2009 22:55:00      0.120     0.000    0.2364
  JAN-10-2009 23:00:00      0.000     0.000    0.3004
  JAN-10-2009 23:05:00      0.120     0.000    0.2978
  JAN-10-2009 23:10:00      0.000     0.000    0.3669
  JAN-10-2009 23:15:00      0.000     0.000    0.3635
  JAN-10-2009 23:20:00      0.120     0.000    0.4373
  JAN-10-2009 23:25:00      0.000     0.000    0.4329
  JAN-10-2009 23:30:00      0.000     0.000    0.4286
  JAN-10-2009 23:35:00      0.000     0.000    0.5065
  JAN-10-2009 23:40:00      0.000     0.000    0.5011
  JAN-10-2009 23:45:00      0.000     0.000    0.4958
  JAN-10-2009 23:50:00      0.000     0.000    0.4906
  JAN-10-2009 23:55:00      0.120     0.000    0.4854
  JAN-11-2009 00:00:00      0.000     0.000    0.4804
  JAN-11-2009 00:05:00      0.000     0.000    0.4754
  JAN-11-2009 00:10:00      0.000     0.000    0.5559
  JAN-11-2009 00:15:00      0.000     0.000    0.5498
  JAN-11-2009 00:20:00      0.000     0.000    0.5437
  JAN-11-2009 00:25:00      0.000     0.000    0.5378
  JAN-11-2009 00:30:00      0.000     0.000    0.5319
  JAN-11-2009 00:35:00      0.000     0.000    0.5261
  JAN-11-2009 00:40:00      0.000     0.000    0.5205
  JAN-11-2009 00:45:00      0.000     0.000    0.5149
  JAN-11-2009 00:50:00      0.000     0.000    0.5093
  JAN-11-2009 00:55:00      0.000     0.000    0.5039
  JAN-11-2009 01:00:00      0.000     0.000    0.4986
  JAN-11-2009 01:05:00      0.000     0.000    0.4933
  JAN-11-2009 01:10:00      0.000     0.000    0.4881
  JAN-11-2009 01:15:00      0.000     0.000    0.4830
  JAN-11-2009 01:20:00      0.000     0.000    0.4779
  JAN-11-2009 01:25:00      0.000     0.000    0.4730
  JAN-11-2009 01:30:00      0.000     0.000    0.4681
  JAN-11-2009 01:35:00      0.000     0.000    0.4632
  JAN-11-2009 01:40:00      0.000     0.000    0.4585
  JAN-11-2009 01:45:00      0.000     0.000    0.4538
  JAN-11-2009 01:50:00      0.000     0.000    0.4492
  JAN-11-2009 01:55:00      0.000     0.000    0.4446
  JAN-11-2009 02:00:00      0.000     0.000    0.4401
  JAN-11-2009 02:05:00      0.000     0.000    0.4357
  JAN-11-2009 02:10:00      0.000     0.000    0.4313
  JAN-11-2009 02:15:00      0.000     0.000    0.4270
  JAN-11-2009 02:20:00      0.000     0.000    0.4228
  JAN-11-2009 02:25:00      0.000     0.000    0.4186
  JAN-11-2009 02:30:00      0.000     0.000    0.4145
  JAN-11-2009 02:35:00      0.000     0.000    0.4104
  JAN-11-2009 02:40:00      0.000     0.000    0.4064
  JAN-11-2009 02:45:00      0.000     0.000    0.4024
  JAN-11-2009 02:50:00      0.000     0.000    0.3985
  JAN-11-2009 02:55:00      0.000     0.000    0.3947
  JAN-11-2009 03:00:00      0.000     0.000    0.3909
  JAN-11-2009 03:05:00      0.000     0.000    0.3871
  JAN-11-2009 03:10:00      0.000     0.000    0.3834
  JAN-11-2009 03:15:00      0.000     0.000    0.3798
  JAN-11-2009 03:20:00      0.000     0.000    0.3762
  JAN-11-2009 03:25:00      0.000     0.000    0.3726
  JAN-11-2009 03:30:00      0.000     0.000    0.3691
  JAN-11-2009 03:35:00      0.000     0.000    0.3656
  JAN-11-2009 03:40:00      0.000     0.000    0.3622
  JAN-11-2009 03:45:00      0.000     0.000    0.3589
  JAN-11-2009 03:50:00      0.000     0.000    0.3555
  JAN-11-2009 03:55:00      0.000     0.000    0.3522
  JAN-11-2009 04:00:00      0.000     0.000    0.3490
  JAN-11-2009 04:05:00      0.000     0.000    0.3458
  JAN-11-2009 04:10:00      0.000     0.000    0.3426
  JAN-11-2009 04:15:00      0.000     0.000    0.3395
  JAN-11-2009 04:20:00      0.000     0.000    0.3364
  JAN-11-2009 04:25:00      0.000     0.000    0.3334
[...]
  MAR-30-2009 22:10:00      0.033     0.000     0.000     0.000
  MAR-30-2009 22:15:00      0.032     0.000     0.000     0.000
  MAR-30-2009 22:20:00      0.032     0.000     0.000     0.000
  MAR-30-2009 22:25:00      0.032     0.000     0.000     0.000
  MAR-30-2009 22:30:00      0.032     0.000     0.000     0.000
  MAR-30-2009 22:35:00      0.032     0.000     0.000     0.000
  MAR-30-2009 22:40:00      0.032     0.000     0.000     0.000
  MAR-30-2009 22:45:00      0.032     0.000     0.000     0.000
  MAR-30-2009 22:50:00      0.032     0.000     0.000     0.000
  MAR-30-2009 22:55:00      0.032     0.000     0.000     0.000
  MAR-30-2009 23:00:00      0.031     0.000     0.000     0.000
  MAR-30-2009 23:05:00      0.031     0.000     0.000     0.000
  MAR-30-2009 23:10:00      0.031     0.000     0.000     0.000
  MAR-30-2009 23:15:00      0.031     0.000     0.000     0.000
  MAR-30-2009 23:20:00      0.031     0.000     0.000     0.000
  MAR-30-2009 23:25:00      0.031     0.000     0.000     0.000
  MAR-30-2009 23:30:00      0.031     0.000     0.000     0.000
  MAR-30-2009 23:35:00      0.031     0.000     0.000     0.000
  MAR-30-2009 23:40:00      0.031     0.000     0.000     0.000
  MAR-30-2009 23:45:00      0.030     0.000     0.000     0.000
  MAR-30-2009 23:50:00      0.030     0.000     0.000     0.000
  MAR-30-2009 23:55:00      0.030     0.000     0.000     0.000
  MAR-31-2009 00:00:00      0.030     0.000     0.000     0.000
  MAR-31-2009 00:05:00      0.030     0.000     0.000     0.000
  MAR-31-2009 00:10:00      0.030     0.000     0.000     0.000
  MAR-31-2009 00:15:00      0.030     0.000     0.000     0.000
  MAR-31-2009 00:20:00      0.030     0.000     0.000     0.000
  MAR-31-2009 00:25:00      0.030     0.000     0.000     0.000
  MAR-31-2009 00:30:00      0.030     0.000     0.000     0.000
  MAR-31-2009 00:35:00      0.029     0.000     0.000     0.000
  MAR-31-2009 00:40:00      0.029     0.000     0.000     0.000
  MAR-31-2009 00:45:00      0.029     0.000     0.000     0.000
  MAR-31-2009 00:50:00      0.029     0.000     0.000     0.000
  MAR-31-2009 00:55:00      0.029     0.000     0.000     0.000
  MAR-31-2009 01:00:00      0.029     0.000     0.000     0.000
  MAR-31-2009 01:05:00      0.029     0.000     0.000     0.000
  MAR-31-2009 01:10:00      0.029     0.000     0.000     0.000
  MAR-31-2009 01:15:00      0.029     0.000     0.000     0.000
  MAR-31-2009 01:20:00      0.029     0.000     0.000     0.000
  MAR-31-2009 01:25:00      0.028     0.000     0.000     0.000
  MAR-31-2009 01:30:00      0.028     0.000     0.000     0.000
  MAR-31-2009 01:35:00      0.028     0.000     0.000     0.000
  MAR-31-2009 01:40:00      0.028     0.000     0.000     0.000
  MAR-31-2009 01:45:00      0.028     0.000     0.000     0.000
  MAR-31-2009 01:50:00      0.028     0.000     0.000     0.000
  MAR-31-2009 01:55:00      0.028     0.000     0.000     0.000
  MAR-31-2009 02:00:00      0.028     0.000     0.000     0.000
  MAR-31-2009 02:05:00      0.028     0.000     0.000     0.000
  MAR-31-2009 02:10:00      0.028     0.000     0.000     0.000
  MAR-31-2009 02:15:00      0.027     0.000     0.000     0.000
  MAR-31-2009 02:20:00      0.027     0.000     0.000     0.000
  MAR-31-2009 02:25:00      0.027     0.000     0.000     0.000
  MAR-31-2009 02:30:00      0.027     0.000     0.000     0.000
  MAR-31-2009 02:35:00      0.027     0.000     0.000     0.000
  MAR-31-2009 02:40:00      0.027     0.000     0.000     0.000
  MAR-31-2009 02:45:00      0.027     0.000     0.000     0.000
  MAR-31-2009 02:50:00      0.027     0.000     0.000     0.000
  MAR-31-2009 02:55:00      0.027     0.000     0.000     0.000
  MAR-31-2009 03:00:00      0.027     0.000     0.000     0.000
  MAR-31-2009 03:05:00      0.027     0.000     0.000     0.000
  MAR-31-2009 03:10:00      0.027     0.000     0.000     0.000
  MAR-31-2009 03:15:00      0.026     0.000     0.000     0.000
  MAR-31-2009 03:20:00      0.026     0.000     0.000     0.000
  MAR-31-2009 03:25:00      0.026     0.000     0.000     0.000
  MAR-31-2009 03:30:00      0.026     0.000     0.000     0.000
  MAR-31-2009 03:35:00      0.026     0.000     0.000     0.000
  MAR-31-2009 03:40:00      0.026     0.000     0.000     0.000
  MAR-31-2009 03:45:00      0.026     0.000     0.000     0.000
  MAR-31-2009 03:50:00      0.026     0.000     0.000     0.000
  MAR-31-2009 03:55:00      0.026     0.000     0.000     0.000
  MAR-31-2009 04:00:00      0.026     0.000     0.000     0.000
  MAR-31-2009 04:05:00      0.026     0.000     0.000     0.000
  MAR-31-2009 04:10:00      0.025     0.000     0.000     0.000
  MAR-31-2009 04:15:00      0.025     0.000     0.000     0.000
  MAR-31-2009 04:20:00      0.025     0.000     0.000     0.000
  MAR-31-2009 04:25:00      0.025     0.000     0.000     0.000
  MAR-31-2009 04:30:00      0.025     0.000     0.000     0.000
  MAR-31-2009 04:35:00      0.025     0.000     0.000     0.000
  MAR-31-2009 04:40:00      0.025     0.000     0.000     0.000
  MAR-31-2009 04:45:00      0.025     0.000     0.000     0.000
  MAR-31-2009 04:50:00      0.025     0.000     0.000     0.000
  MAR-31-2009 04:55:00      0.025     0.000     0.000     0.000
  MAR-31-2009 05:00:00      0.025     0.000     0.000     0.000
  MAR-31-2009 05:05:00      0.025     0.000     0.000     0.000
  MAR-31-2009 05:10:00      0.025     0.000     0.000     0.000
  MAR-31-2009 05:15:00      0.024     0.000     0.000     0.000
  MAR-31-2009 05:20:00      0.024     0.000     0.000     0.000
  MAR-31-2009 05:25:00      0.024     0.000     0.000     0.000
  MAR-31-2009 05:30:00      0.024     0.000     0.000     0.000
  MAR-31-2009 05:35:00      0.024     0.000     0.000     0.000
  MAR-31-2009 05:40:00      0.024     0.000     0.000     0.000
  MAR-31-2009 05:45:00      0.024     0.000     0.000     0.000
  MAR-31-2009 05:50:00      0.024     0.000     0.000     0.000
  MAR-31-2009 05:55:00      0.024     0.000     0.000     0.000
  MAR-31-2009 06:00:00      0.024     0.000     0.000     0.000
  MAR-31-2009 06:05:00      0.024     0.000     0.000     0.000
  MAR-31-2009 06:10:00      0.024     0.000     0.000     0.000
  MAR-31-2009 06:15:00      0.024     0.000     0.000     0.000
  MAR-31-2009 06:20:00      0.023     0.000     0.000     0.000
  MAR-31-2009 06:25:00      0.023     0.000     0.000     0.000
  MAR-31-2009 06:30:00      0.023     0.000     0.000     0.000
  MAR-31-2009 06:35:00      0.023     0.000     0.000     0.000
  MAR-31-2009 06:40:00      0.023     0.000     0.000     0.000
  MAR-31-2009 06:45:00      0.023     0.000     0.000     0.000
  MAR-31-2009 06:50:00      0.023     0.000     0.000     0.000
  MAR-31-2009 06:55:00      0.023     0.000     0.000     0.000
  MAR-31-2009 07:00:00      0.023     0.000     0.000     0.000
  MAR-31-2009 07:05:00      0.023     0.000     0.000     0.000
  MAR-31-2009 07:10:00      0.023     0.000     0.000     0.000
  MAR-31-2009 07:15:00      0.023     0.000     0.000     0.000
  MAR-31-2009 07:20:00      0.023     0.000     0.000     0.000
  MAR-31-2009 07:25:00      0.023     0.000     0.000     0.000
  MAR-31-2009 07:30:00      0.022     0.000     0.000     0.000
  MAR-31-2009 07:35:00      0.022     0.000     0.000     0.000
  MAR-31-2009 07:40:00      0.022     0.000     0.000     0.000
  MAR-31-2009 07:45:00      0.022     0.000     0.000     0.000
  MAR-31-2009 07:50:00      0.022     0.000     0.000     0.000
  MAR-31-2009 07:55:00      0.022     0.000     0.000     0.000
  MAR-31-2009 08:00:00      0.022     0.000     0.000     0.000
  MAR-31-2009 08:05:00      0.022     0.000     0.000     0.000
  MAR-31-2009 08:10:00      0.022     0.000     0.000     0.000
  MAR-31-2009 08:15:00      0.022     0.000     0.000     0.000
  MAR-31-2009 08:20:00      0.022     0.000     0.000     0.000
  MAR-31-2009 08:25:00      0.022     0.000     0.000     0.000
  MAR-31-2009 08:30:00      0.022     0.000     0.000     0.000
  MAR-31-2009 08:35:00      0.022     0.000     0.000     0.000
  MAR-31-2009 08:40:00      0.022     0.000     0.000     0.000
  MAR-31-2009 08:45:00      0.021     0.000     0.000     0.000
  MAR-31-2009 08:50:00      0.021     0.000     0.000     0.000
  MAR-31-2009 08:55:00      0.021     0.000     0.000     0.000
  MAR-31-2009 09:00:00      0.021     0.000     0.000     0.000
  MAR-31-2009 09:05:00      0.021     0.000     0.000     0.000
  MAR-31-2009 09:10:00      0.021     0.000     0.000     0.000
  MAR-31-2009 09:15:00      0.021     0.000     0.000     0.000
  MAR-31-2009 09:20:00      0.021     0.000     0.000     0.000
  MAR-31-2009 09:25:00      0.021     0.000     0.000     0.000
  MAR-31-2009 09:30:00      0.021     0.000     0.000     0.000
  MAR-31-2009 09:35:00      0.021     0.000     0.000     0.000
  MAR-31-2009 09:40:00      0.021     0.000     0.000     0.000
  MAR-31-2009 09:45:00      0.021     0.000     0.000     0.000
  MAR-31-2009 09:50:00      0.021     0.000     0.000     0.000
  MAR-31-2009 09:55:00      0.021     0.000     0.000     0.000
  MAR-31-2009 10:00:00      0.021     0.000     0.000     0.000
  MAR-31-2009 10:05:00      0.020     0.000     0.000     0.000
  MAR-31-2009 10:10:00      0.020     0.000     0.000     0.000
  MAR-31-2009 10:15:00      0.020     0.000     0.000     0.000
  MAR-31-2009 10:20:00      0.020     0.000     0.000     0.000
  MAR-31-2009 10:25:00      0.020     0.000     0.000     0.000
  MAR-31-2009 10:30:00      0.020     0.000     0.000     0.000
  MAR-31-2009 10:35:00      0.020     0.000     0.000     0.000
  MAR-31-2009 10:40:00      0.020     0.000     0.000     0.000
  MAR-31-2009 10:45:00      0.020     0.000     0.000     0.000
  MAR-31-2009 10:50:00      0.020     0.000     0.000     0.000
  MAR-31-2009 10:55:00      0.020     0.000     0.000     0.000
  MAR-31-2009 11:00:00      0.020     0.000     0.000     0.000
  MAR-31-2009 11:05:00      0.020     0.000     0.000     0.000
  MAR-31-2009 11:10:00      0.020     0.000     0.000     0.000
  MAR-31-2009 11:15:00      0.020     0.000     0.000     0.000
  MAR-31-2009 11:20:00      0.020     0.000     0.000     0.000
  MAR-31-2009 11:25:00      0.020     0.000     0.000     0.000
  MAR-31-2009 11:30:00      0.019     0.000     0.000     0.000
  MAR-31-2009 11:35:00      0.019     0.000     0.000     0.000
  MAR-31-2009 11:40:00      0.019     0.000     0.000     0.000
  MAR-31-2009 11:45:00      0.019     0.000     0.000     0.000
  MAR-31-2009 11:50:00      0.019     0.000     0.000     0.000
  MAR-31-2009 11:55:00      0.019     0.000     0.000     0.000
  MAR-31-2009 12:00:00      0.019     0.000     0.000     0.000
  MAR-31-2009 12:05:00      0.019     0.000     0.000     0.000
  MAR-31-2009 12:10:00      0.019     0.000     0.000     0.000
  MAR-31-2009 12:15:00      0.019     0.000     0.000     0.000
  MAR-31-2009 12:20:00      0.019     0.000     0.000     0.000
  MAR-31-2009 12:25:00      0.019     0.000     0.000     0.000
  MAR-31-2009 12:30:00      0.019     0.000     0.000     0.000
  MAR-31-2009 12:35:00      0.019     0.000     0.000     0.000
  MAR-31-2009 12:40:00      0.019     0.000     0.000     0.000
  MAR-31-2009 12:45:00      0.019     0.000     0.000     0.000
  MAR-31-2009 12:50:00      0.019     0.000     0.000     0.000
  MAR-31-2009 12:55:00      0.019     0.000     0.000     0.000
  MAR-31-2009 13:00:00      0.018     0.000     0.000     0.000
  MAR-31-2009 13:05:00      0.018     0.000     0.000     0.000
  MAR-31-2009 13:10:00      0.018     0.000     0.000     0.000
  MAR-31-2009 13:15:00      0.018     0.000     0.000     0.000
  MAR-31-2009 13:20:00      0.018     0.000     0.000     0.000
  MAR-31-2009 13:25:00      0.018     0.000     0.000     0.000
  MAR-31-2009 13:30:00      0.018     0.000     0.000     0.000
  MAR-31-2009 13:35:00      0.018     0.000     0.000     0.000
  MAR-31-2009 13:40:00      0.018     0.000     0.000     0.000
  MAR-31-2009 13:45:00      0.018     0.000     0.000     0.000
  MAR-31-2009 13:50:00      0.018     0.000     0.000     0.000
  MAR-31-2009 13:55:00      0.018     0.000     0.000     0.000
  MAR-31-2009 14:00:00      0.018     0.000     0.000     0.000
  MAR-31-2009 14:05:00      0.018     0.000     0.000     0.000
  MAR-31-2009 14:10:00      0.018     0.000     0.000     0.000
  MAR-31-2009 14:15:00      0.018     0.000     0.000     0.000
  MAR-31-2009 14:20:00      0.018     0.000     0.000     0.000
  MAR-31-2009 14:25:00      0.018     0.000     0.000     0.000
  MAR-31-2009 14:30:00      0.018     0.000     0.000     0.000
  MAR-31-2009 14:35:00      0.018     0.000     0.000     0.000
  MAR-31-2009 14:40:00      0.017     0.000     0.000     0.000
  MAR-31-2009 14:45:00      0.017     0.000     0.000     0.000
  MAR-31-2009 14:50:00      0.017     0.000     0.000     0.000
  MAR-31-2009 14:55:00      0.017     0.000     0.000     0.000
  MAR-31-2009 15:00:00      0.017     0.000     0.000     0.000
  MAR-31-2009 15:05:00      0.017     0.000     0.000     0.000
  MAR-31-2009 15:10:00      0.017     0.000     0.000     0.000
  MAR-31-2009 15:15:00      0.017     0.000     0.000     0.000
  MAR-31-2009 15:20:00      0.017     0.000     0.000     0.000
  MAR-31-2009 15:25:00      0.017     0.000     0.000     0.000
  MAR-31-2009 15:30:00      0.017     0.000     0.000     0.000
  MAR-31-2009 15:35:00      0.017     0.000     0.000     0.000
  MAR-31-2009 15:40:00      0.017     0.000     0.000     0.000
  MAR-31-2009 15:45:00      0.017     0.000     0.000     0.000
  MAR-31-2009 15:50:00      0.017     0.000     0.000     0.000
  MAR-31-2009 15:55:00      0.017     0.000     0.000     0.000
  MAR-31-2009 16:00:00      0.017     0.000     0.000     0.000
  MAR-31-2009 16:05:00      0.017     0.000     0.000     0.000
  MAR-31-2009 16:10:00      0.017     0.000     0.000     0.000
  MAR-31-2009 16:15:00      0.017     0.000     0.000     0.000
  MAR-31-2009 16:20:00      0.017     0.000     0.000     0.000
  MAR-31-2009 16:25:00      0.017     0.000     0.000     0.000
  MAR-31-2009 16:30:00      0.016     0.000     0.000     0.000
  MAR-31-2009 16:35:00      0.016     0.000     0.000     0.000
  MAR-31-2009 16:40:00      0.016     0.000     0.000     0.000
  MAR-31-2009 16:45:00      0.016     0.000     0.000     0.000
  MAR-31-2009 16:50:00      0.016     0.000     0.000     0.000
  MAR-31-2009 16:55:00      0.016     0.000     0.000     0.000
  MAR-31-2009 17:00:00      0.016     0.000     0.000     0.000
  MAR-31-2009 17:05:00      0.016     0.000     0.000     0.000
  MAR-31-2009 17:10:00      0.016     0.000     0.000     0.000
  MAR-31-2009 17:15:00      0.016     0.000     0.000     0.000
  MAR-31-2009 17:20:00      0.016     0.000     0.000     0.000
  MAR-31-2009 17:25:00      0.016     0.000     0.000     0.000
  MAR-31-2009 17:30:00      0.016     0.000     0.000     0.000
  MAR-31-2009 17:35:00      0.016     0.000     0.000     0.000
  MAR-31-2009 17:40:00      0.016     0.000     0.000     0.000
  MAR-31-2009 17:45:00      0.016     0.000     0.000     0.000
  MAR-31-2009 17:50:00      0.016     0.000     0.000     0.000
  MAR-31-2009 17:55:00      0.016     0.000     0.000     0.000
  MAR-31-2009 18:00:00      0.016     0.000     0.000     0.000
  MAR-31-2009 18:05:00      0.016     0.000     0.000     0.000
  MAR-31-2009 18:10:00      0.016     0.000     0.000     0.000
  MAR-31-2009 18:15:00      0.016     0.000     0.000     0.000
  MAR-31-2009 18:20:00      0.016     0.000     0.000     0.000
  MAR-31-2009 18:25:00      0.015     0.000     0.000     0.000
  MAR-31-2009 18:30:00      0.015     0.000     0.000     0.000
  MAR-31-2009 18:35:00      0.015     0.000     0.000     0.000
  MAR-31-2009 18:40:00      0.015     0.000     0.000     0.000
  MAR-31-2009 18:45:00      0.015     0.000     0.000     0.000
  MAR-31-2009 18:50:00      0.015     0.000     0.000     0.000
  MAR-31-2009 18:55:00      0.015     0.000     0.000     0.000
  MAR-31-2009 19:00:00      0.015     0.000     0.000     0.000
  MAR-31-2009 19:05:00      0.015     0.000     0.000     0.000
  MAR-31-2009 19:10:00      0.015     0.000     0.000     0.000
  MAR-31-2009 19:15:00      0.015     0.000     0.000     0.000
  MAR-31-2009 19:20:00      0.015     0.000     0.000     0.000
  MAR-31-2009 19:25:00      0.015     0.000     0.000     0.000
  MAR-31-2009 19:30:00      0.015     0.000     0.000     0.000
  MAR-31-2009 19:35:00      0.015     0.000     0.000     0.000
  MAR-31-2009 19:40:00      0.015     0.000     0.000     0.000
  MAR-31-2009 19:45:00      0.015     0.000     0.000     0.000
  MAR-31-2009 19:50:00      0.015     0.000     0.000     0.000
  MAR-31-2009 19:55:00      0.015     0.000     0.000     0.000
  MAR-31-2009 20:00:00      0.015     0.000     0.000     0.000
  MAR-31-2009 20:05:00      0.015     0.000     0.000     0.000
  MAR-31-2009 20:10:00      0.015     0.000     0.000     0.000
  MAR-31-2009 20:15:00      0.015     0.000     0.000     0.000
  MAR-31-2009 20:20:00      0.015     0.000     0.000     0.000
  MAR-31-2009 20:25:00      0.015     0.000     0.000     0.000
  MAR-31-2009 20:30:00      0.014     0.000     0.000     0.000
  MAR-31-2009 20:35:00      0.014     0.000     0.000     0.000
  MAR-31-2009 20:40:00      0.014     0.000     0.000     0.000
  MAR-31-2009 20:45:00      0.014     0.000     0.000     0.000
  MAR-31-2009 20:50:00      0.014     0.000     0.000     0.000
  MAR-31-2009 20:55:00      0.014     0.000     0.000     0.000
  MAR-31-2009 21:00:00      0.014     0.000     0.000     0.000
  MAR-31-2009 21:05:00      0.014     0.000     0.000     0.000
  MAR-31-2009 21:10:00      0.014     0.000     0.000     0.000
  MAR-31-2009 21:15:00      0.014     0.000     0.000     0.000
  MAR-31-2009 21:20:00      0.014     0.000     0.000     0.000
  MAR-31-2009 21:25:00      0.014     0.000     0.000     0.000
  MAR-31-2009 21:30:00      0.014     0.000     0.000     0.000
  MAR-31-2009 21:35:00      0.014     0.000     0.000     0.000
  MAR-31-2009 21:40:00      0.014     0.000     0.000     0.000
  MAR-31-2009 21:45:00      0.014     0.000     0.000     0.000
  MAR-31-2009 21:50:00      0.014     0.000     0.000     0.000
  MAR-31-2009 21:55:00      0.014     0.000     0.000     0.000
  MAR-31-2009 22:00:00      0.014     0.000     0.000     0.000
  MAR-31-2009 22:05:00      0.014     0.000     0.000     0.000
  MAR-31-2009 22:10:00      0.014     0.000     0.000     0.000
  MAR-31-2009 22:15:00      0.014     0.000     0.000     0.000
  MAR-31-2009 22:20:00      0.014     0.000     0.000     0.000
  MAR-31-2009 22:25:00      0.014     0.000     0.000     0.000
  MAR-31-2009 22:30:00      0.014     0.000     0.000     0.000
  MAR-31-2009 22:35:00      0.014     0.000     0.000     0.000
  MAR-31-2009 22:40:00      0.014     0.000     0.000     0.000
  MAR-31-2009 22:45:00      0.014     0.000     0.000     0.000
  MAR-31-2009 22:50:00      0.014     0.000     0.000     0.000
  MAR-31-2009 22:55:00      0.013     0.000     0.000     0.000
  MAR-31-2009 23:00:00      0.013     0.000     0.000     0.000
  MAR-31-2009 23:05:00      0.013     0.000     0.000     0.000
  MAR-31-2009 23:10:00      0.013     0.000     0.000     0.000
  MAR-31-2009 23:15:00      0.013     0.000     0.000     0.000
  MAR-31-2009 23:20:00      0.013     0.000     0.000     0.000
  MAR-31-2009 23:25:00      0.013     0.000     0.000     0.000
  MAR-31-2009 23:30:00      0.013     0.000     0.000     0.000
  MAR-31-2009 23:35:00      0.013     0.000     0.000     0.000
  MAR-31-2009 23:40:00      0.013     0.000     0.000     0.000
  MAR-31-2009 23:45:00      0.013     0.000     0.000     0.000
  MAR-31-2009 23:50:00      0.013     0.000     0.000     0.000
  MAR-31-2009 23:55:00      0.013     0.000     0.000     0.000
  

  Analysis begun on:  Mon Jun 04 23:24:28 2018
  Analysis ended on:  Mon Jun 04 23:24:30 2018
  Total elapsed time: 00:00:02